53415330
  -OEChem-03202123403D

 25 25  0     1  0  0  0  0  0999 V2000
    2.9486   -2.0571    0.0015 F   0  0  0  0  0  0  0  0  0  0  0  0
   -1.6023    1.5370    1.0409 O   0  0  0  0  0  0  0  0  0  0  0  0
   -3.0220   -0.1927   -0.8360 N   0  0  0  0  0  0  0  0  0  0  0  0
   -2.0545   -0.6618    0.1579 C   0  0  1  0  0  0  0  0  0  0  0  0
   -1.1166    0.5108    0.5188 C   0  0  0  0  0  0  0  0  0  0  0  0
    0.3095    0.4357    0.2435 C   0  0  0  0  0  0  0  0  0  0  0  0
   -2.7923   -1.1509    1.3973 C   0  0  0  0  0  0  0  0  0  0  0  0
    0.9580   -0.7993    0.2551 C   0  0  0  0  0  0  0  0  0  0  0  0
    1.0289    1.5987   -0.0313 C   0  0  0  0  0  0  0  0  0  0  0  0
   -2.4255   -0.1678   -2.1616 C   0  0  0  0  0  0  0  0  0  0  0  0
    2.3260   -0.8713   -0.0083 C   0  0  0  0  0  0  0  0  0  0  0  0
    2.3969    1.5268   -0.2945 C   0  0  0  0  0  0  0  0  0  0  0  0
    3.0454    0.2918   -0.2832 C   0  0  0  0  0  0  0  0  0  0  0  0
   -1.5051   -1.5148   -0.2488 H   0  0  0  0  0  0  0  0  0  0  0  0
   -3.4149   -0.3637    1.8381 H   0  0  0  0  0  0  0  0  0  0  0  0
   -3.4393   -2.0036    1.1636 H   0  0  0  0  0  0  0  0  0  0  0  0
   -2.0802   -1.4701    2.1664 H   0  0  0  0  0  0  0  0  0  0  0  0
   -3.8234   -0.8235   -0.8562 H   0  0  0  0  0  0  0  0  0  0  0  0
    0.4418   -1.7226    0.4977 H   0  0  0  0  0  0  0  0  0  0  0  0
    0.5408    2.5697   -0.0497 H   0  0  0  0  0  0  0  0  0  0  0  0
   -1.5862    0.5321   -2.2204 H   0  0  0  0  0  0  0  0  0  0  0  0
   -3.1738    0.1691   -2.8862 H   0  0  0  0  0  0  0  0  0  0  0  0
   -2.0874   -1.1611   -2.4753 H   0  0  0  0  0  0  0  0  0  0  0  0
    2.9571    2.4321   -0.5096 H   0  0  0  0  0  0  0  0  0  0  0  0
    4.1103    0.2354   -0.4887 H   0  0  0  0  0  0  0  0  0  0  0  0
  1 11  1  0  0  0  0
  2  5  2  0  0  0  0
  3  4  1  0  0  0  0
  3 10  1  0  0  0  0
  3 18  1  0  0  0  0
  4  5  1  0  0  0  0
  4  7  1  0  0  0  0
  4 14  1  0  0  0  0
  5  6  1  0  0  0  0
  6  8  2  0  0  0  0
  6  9  1  0  0  0  0
  7 15  1  0  0  0  0
  7 16  1  0  0  0  0
  7 17  1  0  0  0  0
  8 11  1  0  0  0  0
  8 19  1  0  0  0  0
  9 12  2  0  0  0  0
  9 20  1  0  0  0  0
 10 21  1  0  0  0  0
 10 22  1  0  0  0  0
 10 23  1  0  0  0  0
 11 13  2  0  0  0  0
 12 13  1  0  0  0  0
 12 24  1  0  0  0  0
 13 25  1  0  0  0  0
M  END
> <PUBCHEM_COMPOUND_CID>
53415330

> <PUBCHEM_CONFORMER_RMSD>
0.6

> <PUBCHEM_CONFORMER_DIVERSEORDER>
1
54
27
31
29
26
49
9
19
8
35
32
44
52
50
20
41
47
45
37
40
10
30
17
22
11
5
46
28
2
53
43
7
36
39
21
33
48
18
25
15
12
3
42
23
13
6
34
51
4
24
14
38
16

> <PUBCHEM_MMFF94_PARTIAL_CHARGES>
17
1 -0.19
10 0.27
11 0.19
12 -0.15
13 -0.15
18 0.36
19 0.15
2 -0.57
20 0.15
24 0.15
25 0.15
3 -0.9
4 0.33
5 0.42
6 0.09
8 -0.15
9 -0.15

> <PUBCHEM_EFFECTIVE_ROTOR_COUNT>
3

> <PUBCHEM_PHARMACOPHORE_FEATURES>
4
1 2 acceptor
1 3 cation
1 3 donor
6 6 8 9 11 12 13 rings

> <PUBCHEM_HEAVY_ATOM_COUNT>
13

> <PUBCHEM_ATOM_DEF_STEREO_COUNT>
0

> <PUBCHEM_ATOM_UDEF_STEREO_COUNT>
1

> <PUBCHEM_BOND_DEF_STEREO_COUNT>
0

> <PUBCHEM_BOND_UDEF_STEREO_COUNT>
0

> <PUBCHEM_ISOTOPIC_ATOM_COUNT>
0

> <PUBCHEM_COMPONENT_COUNT>
1

> <PUBCHEM_CACTVS_TAUTO_COUNT>
2

> <PUBCHEM_CONFORMER_ID>
032F0DA200000001

> <PUBCHEM_MMFF94_ENERGY>
28.7317

> <PUBCHEM_FEATURE_SELFOVERLAP>
20.297

> <PUBCHEM_SHAPE_FINGERPRINT>
12897270 3 18335702788145090584
12932764 1 17560806545316254472
13764800 53 13912610403304633957
15219456 202 18041278867389161281
15279308 51 18057044597131908716
15906896 17 17986400997002575105
16945 1 18269838764850241336
17844478 74 17749961092952151683
18186145 218 17748824090169733395
18522851 268 17677330657419128279
20201158 50 18333730247115547402
20361792 2 17560229344993660781
20645477 70 18410854356527795487
20653085 51 17168140114062933021
22802520 49 17968085413478717157
23552423 10 18336276673322507592
23557571 272 17023184980528337485
2748010 2 18260552246570975018
3248919 1 18407757036540554280
5084963 1 17531820158859160584
77492 1 17704076226166934903
8030462 33 18343024401814997832

> <PUBCHEM_SHAPE_MULTIPOLES>
249.41
5.23
1.66
1.29
0.11
0.18
-0.57
1.11
-0.78
-1.02
0.25
1.57
-0.07
0.33

> <PUBCHEM_SHAPE_SELFOVERLAP>
511.173

> <PUBCHEM_SHAPE_VOLUME>
145.1

> <PUBCHEM_COORDINATE_TYPE>
2
5
10

$$$$
