66195
  -OEChem-03202123453D

 16 15  0     0  0  0  0  0  0999 V2000
    0.0000    0.3562   -0.2258 C   0  0  0  0  0  0  0  0  0  0  0  0
    0.0003    1.8816   -0.1030 C   0  0  0  0  0  0  0  0  0  0  0  0
    1.2400   -0.2151    0.4146 C   0  0  0  0  0  0  0  0  0  0  0  0
   -1.2402   -0.2149    0.4147 C   0  0  0  0  0  0  0  0  0  0  0  0
    2.1752   -0.9040   -0.2502 C   0  0  0  0  0  0  0  0  0  0  0  0
   -2.1753   -0.9037   -0.2503 C   0  0  0  0  0  0  0  0  0  0  0  0
   -0.0001    0.1143   -1.2973 H   0  0  0  0  0  0  0  0  0  0  0  0
    0.0003    2.2061    0.9445 H   0  0  0  0  0  0  0  0  0  0  0  0
    0.8848    2.3124   -0.5860 H   0  0  0  0  0  0  0  0  0  0  0  0
   -0.8840    2.3127   -0.5860 H   0  0  0  0  0  0  0  0  0  0  0  0
    1.3840   -0.0474    1.4799 H   0  0  0  0  0  0  0  0  0  0  0  0
   -1.3842   -0.0472    1.4800 H   0  0  0  0  0  0  0  0  0  0  0  0
    3.0481   -1.2856    0.2680 H   0  0  0  0  0  0  0  0  0  0  0  0
    2.0887   -1.0987   -1.3134 H   0  0  0  0  0  0  0  0  0  0  0  0
   -3.0484   -1.2852    0.2678 H   0  0  0  0  0  0  0  0  0  0  0  0
   -2.0888   -1.0984   -1.3135 H   0  0  0  0  0  0  0  0  0  0  0  0
  1  2  1  0  0  0  0
  1  3  1  0  0  0  0
  1  4  1  0  0  0  0
  1  7  1  0  0  0  0
  2  8  1  0  0  0  0
  2  9  1  0  0  0  0
  2 10  1  0  0  0  0
  3  5  2  0  0  0  0
  3 11  1  0  0  0  0
  4  6  2  0  0  0  0
  4 12  1  0  0  0  0
  5 13  1  0  0  0  0
  5 14  1  0  0  0  0
  6 15  1  0  0  0  0
  6 16  1  0  0  0  0
M  END
> <PUBCHEM_COMPOUND_CID>
66195

> <PUBCHEM_CONFORMER_RMSD>
0.4

> <PUBCHEM_CONFORMER_DIVERSEORDER>
1
12
11
4
6
8
5
7
9
10
2
3

> <PUBCHEM_MMFF94_PARTIAL_CHARGES>
11
1 0.28
11 0.15
12 0.15
13 0.15
14 0.15
15 0.15
16 0.15
3 -0.29
4 -0.29
5 -0.3
6 -0.3

> <PUBCHEM_EFFECTIVE_ROTOR_COUNT>
2

> <PUBCHEM_PHARMACOPHORE_FEATURES>
3
1 2 hydrophobe
1 5 hydrophobe
1 6 hydrophobe

> <PUBCHEM_HEAVY_ATOM_COUNT>
6

> <PUBCHEM_ATOM_DEF_STEREO_COUNT>
0

> <PUBCHEM_ATOM_UDEF_STEREO_COUNT>
0

> <PUBCHEM_BOND_DEF_STEREO_COUNT>
0

> <PUBCHEM_BOND_UDEF_STEREO_COUNT>
0

> <PUBCHEM_ISOTOPIC_ATOM_COUNT>
0

> <PUBCHEM_COMPONENT_COUNT>
1

> <PUBCHEM_CACTVS_TAUTO_COUNT>
1

> <PUBCHEM_CONFORMER_ID>
0001029300000001

> <PUBCHEM_MMFF94_ENERGY>
4.1059

> <PUBCHEM_FEATURE_SELFOVERLAP>
15.223

> <PUBCHEM_SHAPE_FINGERPRINT>
139733 1 9583519815016971763
14390081 3 7853583400278811327
16714656 1 18193845833754407401
21040471 1 17544469752585099512
23552423 10 18043539304598765878
23552449 1 18267297626064579000
23552449 11 18118665837262927523
29004967 10 18337109063511650586
5943 1 17768574660431313000

> <PUBCHEM_SHAPE_MULTIPOLES>
123.48
2.71
1.52
0.7
0
0.87
-0.02
-1.54
0.18
0
0.13
0
-0.02
0

> <PUBCHEM_SHAPE_SELFOVERLAP>
218.977

> <PUBCHEM_SHAPE_VOLUME>
81.3

> <PUBCHEM_COORDINATE_TYPE>
2
5
10

$$$$
