18361659
  -OEChem-03212100043D

 30 29  0     1  0  0  0  0  0999 V2000
   -0.8879    0.1549    0.0493 O   0  0  0  0  0  0  0  0  0  0  0  0
   -2.2192   -1.6216   -0.5591 O   0  0  0  0  0  0  0  0  0  0  0  0
    2.8628   -0.4593   -0.1038 C   0  0  1  0  0  0  0  0  0  0  0  0
    1.5034    0.2287    0.1220 C   0  0  0  0  0  0  0  0  0  0  0  0
    4.0833    0.4430    0.1564 C   0  0  0  0  0  0  0  0  0  0  0  0
    2.9810   -1.7412    0.7274 C   0  0  0  0  0  0  0  0  0  0  0  0
    0.2786   -0.6264   -0.1827 C   0  0  0  0  0  0  0  0  0  0  0  0
    4.0569    1.7468   -0.6280 C   0  0  0  0  0  0  0  0  0  0  0  0
   -2.0807   -0.4677   -0.1785 C   0  0  0  0  0  0  0  0  0  0  0  0
   -3.2036    0.4692    0.1039 C   0  0  0  0  0  0  0  0  0  0  0  0
   -2.9246    1.8663    0.5670 C   0  0  0  0  0  0  0  0  0  0  0  0
   -4.4500    0.0073   -0.0737 C   0  0  0  0  0  0  0  0  0  0  0  0
    2.9045   -0.7571   -1.1606 H   0  0  0  0  0  0  0  0  0  0  0  0
    1.4396    0.5872    1.1579 H   0  0  0  0  0  0  0  0  0  0  0  0
    1.4341    1.1300   -0.4991 H   0  0  0  0  0  0  0  0  0  0  0  0
    4.1517    0.6764    1.2260 H   0  0  0  0  0  0  0  0  0  0  0  0
    4.9974   -0.1036   -0.1071 H   0  0  0  0  0  0  0  0  0  0  0  0
    2.8334   -1.5364    1.7931 H   0  0  0  0  0  0  0  0  0  0  0  0
    2.2492   -2.4924    0.4157 H   0  0  0  0  0  0  0  0  0  0  0  0
    3.9713   -2.1936    0.6052 H   0  0  0  0  0  0  0  0  0  0  0  0
    0.2458   -1.5029    0.4724 H   0  0  0  0  0  0  0  0  0  0  0  0
    0.3002   -0.9540   -1.2285 H   0  0  0  0  0  0  0  0  0  0  0  0
    3.2682    2.4158   -0.2718 H   0  0  0  0  0  0  0  0  0  0  0  0
    3.9055    1.5622   -1.6961 H   0  0  0  0  0  0  0  0  0  0  0  0
    5.0092    2.2739   -0.5076 H   0  0  0  0  0  0  0  0  0  0  0  0
   -2.3706    1.8548    1.5114 H   0  0  0  0  0  0  0  0  0  0  0  0
   -2.3349    2.4082   -0.1797 H   0  0  0  0  0  0  0  0  0  0  0  0
   -3.8464    2.4341    0.7334 H   0  0  0  0  0  0  0  0  0  0  0  0
   -5.3105    0.6415    0.1154 H   0  0  0  0  0  0  0  0  0  0  0  0
   -4.6579   -1.0034   -0.4088 H   0  0  0  0  0  0  0  0  0  0  0  0
  1  7  1  0  0  0  0
  1  9  1  0  0  0  0
  2  9  2  0  0  0  0
  3  4  1  0  0  0  0
  3  5  1  0  0  0  0
  3  6  1  0  0  0  0
  3 13  1  0  0  0  0
  4  7  1  0  0  0  0
  4 14  1  0  0  0  0
  4 15  1  0  0  0  0
  5  8  1  0  0  0  0
  5 16  1  0  0  0  0
  5 17  1  0  0  0  0
  6 18  1  0  0  0  0
  6 19  1  0  0  0  0
  6 20  1  0  0  0  0
  7 21  1  0  0  0  0
  7 22  1  0  0  0  0
  8 23  1  0  0  0  0
  8 24  1  0  0  0  0
  8 25  1  0  0  0  0
  9 10  1  0  0  0  0
 10 11  1  0  0  0  0
 10 12  2  0  0  0  0
 11 26  1  0  0  0  0
 11 27  1  0  0  0  0
 11 28  1  0  0  0  0
 12 29  1  0  0  0  0
 12 30  1  0  0  0  0
M  END
> <PUBCHEM_COMPOUND_CID>
18361659

> <PUBCHEM_CONFORMER_RMSD>
0.8

> <PUBCHEM_CONFORMER_DIVERSEORDER>
2
69
94
64
39
43
86
48
30
46
100
107
68
11
44
20
1
72
14
104
59
4
109
50
70
34
71
10
40
17
110
103
16
3
35
75
32
65
13
19
76
42
27
8
77
96
47
88
25
6
22
92
83
74
105
41
79
102
53
78
51
97
29
95
73
111
91
23
99
82
12
45
56
101
89
28
38
49
62
24
63
55
18
67
80
93
98
37
36
84
33
21
108
90
61
15
9
87
54
26
52
85
5
58
60
106
31
66
57
7
81

> <PUBCHEM_MMFF94_PARTIAL_CHARGES>
9
1 -0.43
10 -0.12
11 0.14
12 -0.3
2 -0.57
29 0.15
30 0.15
7 0.28
9 0.71

> <PUBCHEM_EFFECTIVE_ROTOR_COUNT>
6

> <PUBCHEM_PHARMACOPHORE_FEATURES>
3
1 2 acceptor
1 6 hydrophobe
1 8 hydrophobe

> <PUBCHEM_HEAVY_ATOM_COUNT>
12

> <PUBCHEM_ATOM_DEF_STEREO_COUNT>
0

> <PUBCHEM_ATOM_UDEF_STEREO_COUNT>
1

> <PUBCHEM_BOND_DEF_STEREO_COUNT>
0

> <PUBCHEM_BOND_UDEF_STEREO_COUNT>
0

> <PUBCHEM_ISOTOPIC_ATOM_COUNT>
0

> <PUBCHEM_COMPONENT_COUNT>
1

> <PUBCHEM_CACTVS_TAUTO_COUNT>
1

> <PUBCHEM_CONFORMER_ID>
01182D3B00000002

> <PUBCHEM_MMFF94_ENERGY>
15.5104

> <PUBCHEM_FEATURE_SELFOVERLAP>
15.223

> <PUBCHEM_SHAPE_FINGERPRINT>
10014705 185 18187077369481818981
12932764 1 17489297620518229402
13897977 58 18341056289149976797
14123260 362 18342188777214976160
14144814 61 18411981321491127171
14325111 11 18411418397307619930
14415576 193 18412549799510498716
14445660 50 18408606967444588719
15442244 35 18194401096111949448
15669948 3 18130780191932492879
17834072 32 18195249910473102529
17834072 33 18336825385396156079
18186145 218 18260266317950672158
190213 19 17531250538985032819
19050596 39 18335978744521225770
20279233 1 15574433210794642547
20645477 70 18337951199535976262
21652331 79 18410013247228104221
23048698 100 18333731290744926282
23402539 116 18130777950629250101
23402655 69 18412547617667300644
23532345 1 18113903766651526080
449060 50 18187086173668734463
449060 62 18335423491360344876
474 4 17895481452715053572
77779 3 18410294700687332162

> <PUBCHEM_SHAPE_MULTIPOLES>
235.22
9.31
1.71
0.74
0.14
0.22
0.03
2.38
-0.03
0.71
0.07
0.12
0
-1.08

> <PUBCHEM_SHAPE_SELFOVERLAP>
438.15

> <PUBCHEM_SHAPE_VOLUME>
148

> <PUBCHEM_COORDINATE_TYPE>
2
5
10

$$$$
