14347
  -OEChem-03212101053D

 25 26  0     0  0  0  0  0  0999 V2000
   -0.5564   -2.3900    0.0006 O   0  0  0  0  0  0  0  0  0  0  0  0
    4.7150    1.0065    0.0006 O   0  0  0  0  0  0  0  0  0  0  0  0
    0.9213   -0.5770   -0.0006 C   0  0  0  0  0  0  0  0  0  0  0  0
   -1.6501   -0.3225   -0.0003 C   0  0  0  0  0  0  0  0  0  0  0  0
   -0.4571   -1.1540   -0.0001 C   0  0  0  0  0  0  0  0  0  0  0  0
    1.5274   -0.3230    1.2077 C   0  0  0  0  0  0  0  0  0  0  0  0
    1.5287   -0.3239   -1.2083 C   0  0  0  0  0  0  0  0  0  0  0  0
   -1.5319    1.0673   -0.0008 C   0  0  0  0  0  0  0  0  0  0  0  0
   -2.9129   -0.9150    0.0005 C   0  0  0  0  0  0  0  0  0  0  0  0
    2.8144    0.2149    1.2082 C   0  0  0  0  0  0  0  0  0  0  0  0
    2.8158    0.2140   -1.2078 C   0  0  0  0  0  0  0  0  0  0  0  0
    3.4586    0.4834    0.0004 C   0  0  0  0  0  0  0  0  0  0  0  0
   -2.6764    1.8648   -0.0006 C   0  0  0  0  0  0  0  0  0  0  0  0
   -4.0574   -0.1177    0.0005 C   0  0  0  0  0  0  0  0  0  0  0  0
   -3.9391    1.2722    0.0001 C   0  0  0  0  0  0  0  0  0  0  0  0
    1.0295   -0.5311    2.1497 H   0  0  0  0  0  0  0  0  0  0  0  0
    1.0319   -0.5326   -2.1508 H   0  0  0  0  0  0  0  0  0  0  0  0
   -0.5695    1.5701   -0.0014 H   0  0  0  0  0  0  0  0  0  0  0  0
   -3.0326   -1.9952    0.0010 H   0  0  0  0  0  0  0  0  0  0  0  0
    3.3044    0.4199    2.1563 H   0  0  0  0  0  0  0  0  0  0  0  0
    3.3126    0.4206   -2.1518 H   0  0  0  0  0  0  0  0  0  0  0  0
   -2.5849    2.9470   -0.0011 H   0  0  0  0  0  0  0  0  0  0  0  0
   -5.0409   -0.5787    0.0011 H   0  0  0  0  0  0  0  0  0  0  0  0
   -4.8302    1.8930    0.0001 H   0  0  0  0  0  0  0  0  0  0  0  0
    5.0054    1.1283    0.9208 H   0  0  0  0  0  0  0  0  0  0  0  0
  1  5  2  0  0  0  0
  2 12  1  0  0  0  0
  2 25  1  0  0  0  0
  3  5  1  0  0  0  0
  3  6  2  0  0  0  0
  3  7  1  0  0  0  0
  4  5  1  0  0  0  0
  4  8  2  0  0  0  0
  4  9  1  0  0  0  0
  6 10  1  0  0  0  0
  6 16  1  0  0  0  0
  7 11  2  0  0  0  0
  7 17  1  0  0  0  0
  8 13  1  0  0  0  0
  8 18  1  0  0  0  0
  9 14  2  0  0  0  0
  9 19  1  0  0  0  0
 10 12  2  0  0  0  0
 10 20  1  0  0  0  0
 11 12  1  0  0  0  0
 11 21  1  0  0  0  0
 13 15  2  0  0  0  0
 13 22  1  0  0  0  0
 14 15  1  0  0  0  0
 14 23  1  0  0  0  0
 15 24  1  0  0  0  0
M  END
> <PUBCHEM_COMPOUND_CID>
14347

> <PUBCHEM_CONFORMER_RMSD>
0.6

> <PUBCHEM_CONFORMER_DIVERSEORDER>
1

> <PUBCHEM_MMFF94_PARTIAL_CHARGES>
25
1 -0.57
10 -0.15
11 -0.15
12 0.08
13 -0.15
14 -0.15
15 -0.15
16 0.15
17 0.15
18 0.15
19 0.15
2 -0.53
20 0.15
21 0.15
22 0.15
23 0.15
24 0.15
25 0.45
3 0.09
4 0.09
5 0.4
6 -0.15
7 -0.15
8 -0.15
9 -0.15

> <PUBCHEM_EFFECTIVE_ROTOR_COUNT>
2

> <PUBCHEM_PHARMACOPHORE_FEATURES>
4
1 1 acceptor
1 2 donor
6 3 6 7 10 11 12 rings
6 4 8 9 13 14 15 rings

> <PUBCHEM_HEAVY_ATOM_COUNT>
15

> <PUBCHEM_ATOM_DEF_STEREO_COUNT>
0

> <PUBCHEM_ATOM_UDEF_STEREO_COUNT>
0

> <PUBCHEM_BOND_DEF_STEREO_COUNT>
0

> <PUBCHEM_BOND_UDEF_STEREO_COUNT>
0

> <PUBCHEM_ISOTOPIC_ATOM_COUNT>
0

> <PUBCHEM_COMPONENT_COUNT>
1

> <PUBCHEM_CACTVS_TAUTO_COUNT>
4

> <PUBCHEM_CONFORMER_ID>
0000380B00000001

> <PUBCHEM_MMFF94_ENERGY>
49.5267

> <PUBCHEM_FEATURE_SELFOVERLAP>
20.297

> <PUBCHEM_SHAPE_FINGERPRINT>
10498660 4 18339923710542952957
11031198 65 17275105024581121612
11132069 177 18261396620220092309
11471102 22 14923940146149622022
11543360 7 15841256113145056589
12236239 1 17748824137430197834
12251169 10 15936412247010747418
12346645 44 18408885101248063963
13538477 17 17968656141454536842
13764800 53 18336839623460454491
14739800 52 18194104430369540392
14943859 89 18343021090284293434
15219456 202 17989210321729848222
15775835 57 18187364311508863496
16945 1 18410856590174292903
17846911 113 18410853257152927817
18186145 218 17846227617634903699
200 152 15719668844648942291
20233049 118 18412542111413979120
20510252 161 18342744005133522185
20645477 56 18341051912673059360
20645477 70 16701753674282029350
21524375 3 18335138670013409755
21713013 43 14907599217397103909
23048698 100 17095240319502641384
23402539 116 18342167895141609262
23402655 69 16343708698732539609
23557571 272 18059016206280376759
23559900 14 18201443558662054214
25 1 17418098693469213438
276578 36 18260267417251420482
305870 269 18262797358936301866
3268164 11 18271232894344733109
4028521 119 18131069312067015177
474 4 17096938081984969804
7364860 26 18053943948646246751
77492 1 17676203597712827270
81228 2 17768800215250957719

> <PUBCHEM_SHAPE_MULTIPOLES>
296.95
7.69
1.59
1.01
0.71
0.24
0
-3.14
0
-1.05
0
0.89
0.01
0

> <PUBCHEM_SHAPE_SELFOVERLAP>
647.96

> <PUBCHEM_SHAPE_VOLUME>
161.5

> <PUBCHEM_COORDINATE_TYPE>
2
5
10

$$$$
