57486975
  -OEChem-03282120533D

 38 39  0     1  0  0  0  0  0999 V2000
   -0.4380    0.6843    2.0608 O   0  0  0  0  0  0  0  0  0  0  0  0
   -2.3468   -0.1877    0.0973 N   0  0  0  0  0  0  0  0  0  0  0  0
   -3.4692   -0.0947   -0.8358 C   0  0  0  0  0  0  0  0  0  0  0  0
   -1.8719   -1.5663   -0.0160 C   0  0  0  0  0  0  0  0  0  0  0  0
   -1.3029    0.7849   -0.1905 C   0  0  1  0  0  0  0  0  0  0  0  0
   -4.2129   -1.4022   -0.6064 C   0  0  0  0  0  0  0  0  0  0  0  0
   -3.1640   -2.3683   -0.0643 C   0  0  0  0  0  0  0  0  0  0  0  0
   -1.8838    2.2038   -0.1015 C   0  0  0  0  0  0  0  0  0  0  0  0
   -0.2159    0.5633    0.8568 C   0  0  0  0  0  0  0  0  0  0  0  0
   -0.8390    3.2746   -0.3919 C   0  0  0  0  0  0  0  0  0  0  0  0
    1.1556    0.1873    0.4177 C   0  0  0  0  0  0  0  0  0  0  0  0
    1.6361    0.6207   -0.8181 C   0  0  0  0  0  0  0  0  0  0  0  0
    1.9604   -0.5991    1.2420 C   0  0  0  0  0  0  0  0  0  0  0  0
    2.9212    0.2675   -1.2296 C   0  0  0  0  0  0  0  0  0  0  0  0
    3.2455   -0.9524    0.8305 C   0  0  0  0  0  0  0  0  0  0  0  0
    3.7258   -0.5191   -0.4052 C   0  0  0  0  0  0  0  0  0  0  0  0
    5.0999   -0.8966   -0.8457 C   0  0  0  0  0  0  0  0  0  0  0  0
   -4.1349    0.7487   -0.6284 H   0  0  0  0  0  0  0  0  0  0  0  0
   -3.1346   -0.0378   -1.8796 H   0  0  0  0  0  0  0  0  0  0  0  0
   -1.3037   -1.7299   -0.9409 H   0  0  0  0  0  0  0  0  0  0  0  0
   -1.2585   -1.8834    0.8333 H   0  0  0  0  0  0  0  0  0  0  0  0
   -0.9254    0.6185   -1.2039 H   0  0  0  0  0  0  0  0  0  0  0  0
   -4.6659   -1.7736   -1.5313 H   0  0  0  0  0  0  0  0  0  0  0  0
   -5.0134   -1.2727    0.1316 H   0  0  0  0  0  0  0  0  0  0  0  0
   -3.4528   -2.7034    0.9389 H   0  0  0  0  0  0  0  0  0  0  0  0
   -3.0631   -3.2549   -0.6985 H   0  0  0  0  0  0  0  0  0  0  0  0
   -2.3053    2.3881    0.8949 H   0  0  0  0  0  0  0  0  0  0  0  0
   -2.6908    2.3516   -0.8272 H   0  0  0  0  0  0  0  0  0  0  0  0
   -0.0201    3.2511    0.3331 H   0  0  0  0  0  0  0  0  0  0  0  0
   -1.2983    4.2672   -0.3381 H   0  0  0  0  0  0  0  0  0  0  0  0
   -0.4225    3.1555   -1.3967 H   0  0  0  0  0  0  0  0  0  0  0  0
    1.0559    1.2553   -1.4786 H   0  0  0  0  0  0  0  0  0  0  0  0
    1.6012   -0.9500    2.2058 H   0  0  0  0  0  0  0  0  0  0  0  0
    3.2876    0.6173   -2.1912 H   0  0  0  0  0  0  0  0  0  0  0  0
    3.8632   -1.5651    1.4818 H   0  0  0  0  0  0  0  0  0  0  0  0
    5.8202   -0.1403   -0.5183 H   0  0  0  0  0  0  0  0  0  0  0  0
    5.3958   -1.8660   -0.4305 H   0  0  0  0  0  0  0  0  0  0  0  0
    5.1548   -0.9853   -1.9360 H   0  0  0  0  0  0  0  0  0  0  0  0
  1  9  2  0  0  0  0
  2  3  1  0  0  0  0
  2  4  1  0  0  0  0
  2  5  1  0  0  0  0
  3  6  1  0  0  0  0
  3 18  1  0  0  0  0
  3 19  1  0  0  0  0
  4  7  1  0  0  0  0
  4 20  1  0  0  0  0
  4 21  1  0  0  0  0
  5  8  1  0  0  0  0
  5  9  1  0  0  0  0
  5 22  1  0  0  0  0
  6  7  1  0  0  0  0
  6 23  1  0  0  0  0
  6 24  1  0  0  0  0
  7 25  1  0  0  0  0
  7 26  1  0  0  0  0
  8 10  1  0  0  0  0
  8 27  1  0  0  0  0
  8 28  1  0  0  0  0
  9 11  1  0  0  0  0
 10 29  1  0  0  0  0
 10 30  1  0  0  0  0
 10 31  1  0  0  0  0
 11 12  2  0  0  0  0
 11 13  1  0  0  0  0
 12 14  1  0  0  0  0
 12 32  1  0  0  0  0
 13 15  2  0  0  0  0
 13 33  1  0  0  0  0
 14 16  2  0  0  0  0
 14 34  1  0  0  0  0
 15 16  1  0  0  0  0
 15 35  1  0  0  0  0
 16 17  1  0  0  0  0
 17 36  1  0  0  0  0
 17 37  1  0  0  0  0
 17 38  1  0  0  0  0
M  END
> <PUBCHEM_COMPOUND_CID>
57486975

> <PUBCHEM_CONFORMER_RMSD>
0.6

> <PUBCHEM_CONFORMER_DIVERSEORDER>
1
53
4
47
49
26
28
39
43
15
54
50
7
25
30
56
13
8
52
34
27
33
11
51
38
12
42
35
41
20
37
46
22
31
48
55
3
6
45
40
36
44
23
32
24
29
17
18
21
19
14
5
10
16
2
9

> <PUBCHEM_MMFF94_PARTIAL_CHARGES>
17
1 -0.57
11 0.09
12 -0.15
13 -0.15
14 -0.15
15 -0.15
16 -0.14
17 0.14
2 -0.81
3 0.27
32 0.15
33 0.15
34 0.15
35 0.15
4 0.27
5 0.33
9 0.42

> <PUBCHEM_EFFECTIVE_ROTOR_COUNT>
5

> <PUBCHEM_PHARMACOPHORE_FEATURES>
5
1 1 acceptor
1 10 hydrophobe
1 2 cation
5 2 3 4 6 7 rings
6 11 12 13 14 15 16 rings

> <PUBCHEM_HEAVY_ATOM_COUNT>
17

> <PUBCHEM_ATOM_DEF_STEREO_COUNT>
0

> <PUBCHEM_ATOM_UDEF_STEREO_COUNT>
1

> <PUBCHEM_BOND_DEF_STEREO_COUNT>
0

> <PUBCHEM_BOND_UDEF_STEREO_COUNT>
0

> <PUBCHEM_ISOTOPIC_ATOM_COUNT>
0

> <PUBCHEM_COMPONENT_COUNT>
1

> <PUBCHEM_CACTVS_TAUTO_COUNT>
7

> <PUBCHEM_CONFORMER_ID>
036D2E7F00000001

> <PUBCHEM_MMFF94_ENERGY>
37.321

> <PUBCHEM_FEATURE_SELFOVERLAP>
25.372

> <PUBCHEM_SHAPE_FINGERPRINT>
11046707 91 18202004334602595622
11578080 2 17316721543982935220
12202030 40 17416982650691488300
12500047 106 18124591981904471012
12553582 1 18408317813472827299
12714826 92 18130784542628504579
12788726 201 18261951843400682817
12892183 10 12895087227123404319
13296908 3 17275097315120054570
13583140 156 17700101384965471370
14251764 30 18117293638637224475
14386348 63 17418094316892433262
14576447 43 18186517726674632538
16752209 62 18264753407855417671
16945 1 18337945706087642769
17349148 13 17168134642580462248
18186145 218 15574987390562125067
192875 21 16660911228204704888
19862831 5 17603863420596561487
200 152 18040155123661428814
20300324 65 18333736793067764692
20361792 2 18270112543340373271
20645477 70 17689423207241520615
20671657 53 18339929332506976309
20871999 31 18411135805555009933
21061003 4 16845850200218367049
21524375 3 17537439513792234709
21634736 98 18188492487974940614
22094290 60 18411420587888465102
231179 274 13839988824500206390
23382010 3 16371562747353258051
23402539 116 18408322163942167996
23402655 69 17313097514907367590
23557571 272 18342161276798018464
23559900 14 18341885295289850080
23598288 3 17969500395007931337
25 1 15357972352434430986
3082319 5 17967530168596345686
3286 77 16702018724887184883
603831 33 18041276591283451954
7364860 26 17835517498776976637
7615 1 17677600965755156456
81228 2 18341896260267646921

> <PUBCHEM_SHAPE_MULTIPOLES>
339
7.91
2.41
1.24
4.13
1.58
0.37
-4.92
-2.77
-2.5
-0.24
0.57
0.05
-0.31

> <PUBCHEM_SHAPE_SELFOVERLAP>
703.252

> <PUBCHEM_SHAPE_VOLUME>
196.2

> <PUBCHEM_COORDINATE_TYPE>
2
5
10

$$$$
