52988259
  -OEChem-03212101143D

 31 31  0     1  0  0  0  0  0999 V2000
   -1.1945    1.2352   -1.6585 O   0  0  0  0  0  0  0  0  0  0  0  0
   -2.9561   -0.2079    0.1704 N   0  0  0  0  0  0  0  0  0  0  0  0
   -1.9227    0.7417    0.5877 C   0  0  1  0  0  0  0  0  0  0  0  0
   -0.8570    0.8261   -0.5269 C   0  0  0  0  0  0  0  0  0  0  0  0
    0.5171    0.4219   -0.2755 C   0  0  0  0  0  0  0  0  0  0  0  0
   -2.5512    2.1088    0.8244 C   0  0  0  0  0  0  0  0  0  0  0  0
   -2.5152   -1.5758    0.3895 C   0  0  0  0  0  0  0  0  0  0  0  0
    1.0599    0.5515    1.0029 C   0  0  0  0  0  0  0  0  0  0  0  0
    1.2928   -0.0948   -1.3133 C   0  0  0  0  0  0  0  0  0  0  0  0
    3.1538   -0.3522    0.2055 C   0  0  0  0  0  0  0  0  0  0  0  0
   -3.5796   -2.5712   -0.0400 C   0  0  0  0  0  0  0  0  0  0  0  0
    2.3783    0.1644    1.2435 C   0  0  0  0  0  0  0  0  0  0  0  0
    2.6110   -0.4818   -1.0729 C   0  0  0  0  0  0  0  0  0  0  0  0
    4.5634   -0.7659    0.4632 C   0  0  0  0  0  0  0  0  0  0  0  0
   -1.4947    0.4150    1.5390 H   0  0  0  0  0  0  0  0  0  0  0  0
   -3.8090   -0.0472    0.7065 H   0  0  0  0  0  0  0  0  0  0  0  0
   -3.0529    2.4874   -0.0737 H   0  0  0  0  0  0  0  0  0  0  0  0
   -3.2879    2.0721    1.6343 H   0  0  0  0  0  0  0  0  0  0  0  0
   -1.7840    2.8408    1.1004 H   0  0  0  0  0  0  0  0  0  0  0  0
   -1.6049   -1.7890   -0.1818 H   0  0  0  0  0  0  0  0  0  0  0  0
   -2.2910   -1.7442    1.4497 H   0  0  0  0  0  0  0  0  0  0  0  0
    0.5014    0.9815    1.8283 H   0  0  0  0  0  0  0  0  0  0  0  0
    0.8862   -0.2086   -2.3149 H   0  0  0  0  0  0  0  0  0  0  0  0
   -4.5039   -2.4344    0.5314 H   0  0  0  0  0  0  0  0  0  0  0  0
   -3.8151   -2.4631   -1.1042 H   0  0  0  0  0  0  0  0  0  0  0  0
   -3.2295   -3.5951    0.1259 H   0  0  0  0  0  0  0  0  0  0  0  0
    2.7922    0.2757    2.2422 H   0  0  0  0  0  0  0  0  0  0  0  0
    3.2044   -0.8857   -1.8890 H   0  0  0  0  0  0  0  0  0  0  0  0
    4.5963   -1.8157    0.7712 H   0  0  0  0  0  0  0  0  0  0  0  0
    5.1816   -0.6436   -0.4327 H   0  0  0  0  0  0  0  0  0  0  0  0
    5.0167   -0.1543    1.2507 H   0  0  0  0  0  0  0  0  0  0  0  0
  1  4  2  0  0  0  0
  2  3  1  0  0  0  0
  2  7  1  0  0  0  0
  2 16  1  0  0  0  0
  3  4  1  0  0  0  0
  3  6  1  0  0  0  0
  3 15  1  0  0  0  0
  4  5  1  0  0  0  0
  5  8  2  0  0  0  0
  5  9  1  0  0  0  0
  6 17  1  0  0  0  0
  6 18  1  0  0  0  0
  6 19  1  0  0  0  0
  7 11  1  0  0  0  0
  7 20  1  0  0  0  0
  7 21  1  0  0  0  0
  8 12  1  0  0  0  0
  8 22  1  0  0  0  0
  9 13  2  0  0  0  0
  9 23  1  0  0  0  0
 10 12  2  0  0  0  0
 10 13  1  0  0  0  0
 10 14  1  0  0  0  0
 11 24  1  0  0  0  0
 11 25  1  0  0  0  0
 11 26  1  0  0  0  0
 12 27  1  0  0  0  0
 13 28  1  0  0  0  0
 14 29  1  0  0  0  0
 14 30  1  0  0  0  0
 14 31  1  0  0  0  0
M  END
> <PUBCHEM_COMPOUND_CID>
52988259

> <PUBCHEM_CONFORMER_RMSD>
0.6

> <PUBCHEM_CONFORMER_DIVERSEORDER>
1
40
30
42
17
7
47
44
48
14
34
23
25
21
36
35
33
50
28
29
31
18
43
3
45
2
19
9
46
27
24
39
4
51
26
16
15
22
20
41
11
49
37
6
32
10
13
12
38
5
8

> <PUBCHEM_MMFF94_PARTIAL_CHARGES>
17
1 -0.57
10 -0.14
12 -0.15
13 -0.15
14 0.14
16 0.36
2 -0.9
22 0.15
23 0.15
27 0.15
28 0.15
3 0.33
4 0.42
5 0.09
7 0.27
8 -0.15
9 -0.15

> <PUBCHEM_EFFECTIVE_ROTOR_COUNT>
4

> <PUBCHEM_PHARMACOPHORE_FEATURES>
4
1 1 acceptor
1 2 cation
1 2 donor
6 5 8 9 10 12 13 rings

> <PUBCHEM_HEAVY_ATOM_COUNT>
14

> <PUBCHEM_ATOM_DEF_STEREO_COUNT>
0

> <PUBCHEM_ATOM_UDEF_STEREO_COUNT>
1

> <PUBCHEM_BOND_DEF_STEREO_COUNT>
0

> <PUBCHEM_BOND_UDEF_STEREO_COUNT>
0

> <PUBCHEM_ISOTOPIC_ATOM_COUNT>
0

> <PUBCHEM_COMPONENT_COUNT>
1

> <PUBCHEM_CACTVS_TAUTO_COUNT>
7

> <PUBCHEM_CONFORMER_ID>
0328896300000001

> <PUBCHEM_MMFF94_ENERGY>
26.7784

> <PUBCHEM_FEATURE_SELFOVERLAP>
20.297

> <PUBCHEM_SHAPE_FINGERPRINT>
10618630 7 18266179607417573235
11046707 91 18333447659752992922
11471102 22 17131836473269773378
11578080 2 17750497628688658261
11769659 78 18186796976741953634
12202030 40 18342465794147470142
124424 183 17631445662185910152
12500047 106 18267302032447765273
12633257 1 17703525366810573491
12932764 1 17749108842528536516
13214271 11 17917706868883883512
13675066 3 17346594141517445914
14289901 80 18409732872168813952
15653759 3 17988646276464710464
16945 1 18339093574757673949
17844478 74 17632863031194565168
19026448 5 18260836973317989516
19049666 15 17487072071507565191
19422 9 18334300868249596978
200 152 16588020212668336318
20279233 1 17917714556532166133
20361792 2 17603589672598221853
20671657 53 17823132505206731223
20715346 28 17203336571862642724
21256008 23 16559034900311925426
22112679 90 17968675868418623701
23402539 116 16805322163617984914
23503958 8 18410573968135593434
2748010 2 15552216350475180336
3086196 2 18342177791015362307
449060 23 18335142037457700027
568465 68 17418097636970750650
81228 2 18341903995799009649

> <PUBCHEM_SHAPE_MULTIPOLES>
277.26
6.84
1.9
1.28
2.57
0.56
0.32
3.31
-1.47
-3.03
-0.25
0.42
-0.25
0.13

> <PUBCHEM_SHAPE_SELFOVERLAP>
559.862

> <PUBCHEM_SHAPE_VOLUME>
164.2

> <PUBCHEM_COORDINATE_TYPE>
2
5
10

$$$$
