25711
  -OEChem-03212101593D

 31 32  0     0  0  0  0  0  0999 V2000
    0.6455   -2.6303   -0.7599 O   0  0  0  0  0  0  0  0  0  0  0  0
    0.0002   -0.4575   -0.1429 N   0  0  0  0  0  0  0  0  0  0  0  0
   -1.2998   -2.3983    0.4469 N   0  0  0  0  0  0  0  0  0  0  0  0
   -1.0943    0.4032   -0.0537 C   0  0  0  0  0  0  0  0  0  0  0  0
    1.3524    0.0954   -0.0744 C   0  0  0  0  0  0  0  0  0  0  0  0
   -0.1746   -1.8918   -0.2057 C   0  0  0  0  0  0  0  0  0  0  0  0
   -0.9956    1.5824    0.6849 C   0  0  0  0  0  0  0  0  0  0  0  0
    1.5396    1.3618   -0.5411 C   0  0  0  0  0  0  0  0  0  0  0  0
   -2.2872    0.0844   -0.7024 C   0  0  0  0  0  0  0  0  0  0  0  0
    2.3305   -0.6944    0.4506 C   0  0  0  0  0  0  0  0  0  0  0  0
   -2.0898    2.4427    0.7746 C   0  0  0  0  0  0  0  0  0  0  0  0
    2.8293    1.8891   -0.4764 C   0  0  0  0  0  0  0  0  0  0  0  0
   -3.3814    0.9449   -0.6126 C   0  0  0  0  0  0  0  0  0  0  0  0
    3.6203   -0.1670    0.5152 C   0  0  0  0  0  0  0  0  0  0  0  0
   -3.2828    2.1241    0.1259 C   0  0  0  0  0  0  0  0  0  0  0  0
    3.8697    1.1247    0.0518 C   0  0  0  0  0  0  0  0  0  0  0  0
   -1.5821   -3.8133    0.5193 C   0  0  0  0  0  0  0  0  0  0  0  0
   -0.1238    1.8403    1.2799 H   0  0  0  0  0  0  0  0  0  0  0  0
    0.7847    1.9608   -1.0380 H   0  0  0  0  0  0  0  0  0  0  0  0
   -2.3881   -0.8044   -1.3197 H   0  0  0  0  0  0  0  0  0  0  0  0
    2.1661   -1.6830    0.8628 H   0  0  0  0  0  0  0  0  0  0  0  0
   -2.0198    3.3516    1.3651 H   0  0  0  0  0  0  0  0  0  0  0  0
    3.0282    2.8877   -0.8547 H   0  0  0  0  0  0  0  0  0  0  0  0
   -4.3077    0.7011   -1.1246 H   0  0  0  0  0  0  0  0  0  0  0  0
    4.4289   -0.7581    0.9354 H   0  0  0  0  0  0  0  0  0  0  0  0
   -4.1355    2.7929    0.1977 H   0  0  0  0  0  0  0  0  0  0  0  0
    4.8743    1.5345    0.1002 H   0  0  0  0  0  0  0  0  0  0  0  0
   -1.8641   -1.7810    1.0210 H   0  0  0  0  0  0  0  0  0  0  0  0
   -0.9650   -4.2501    1.3085 H   0  0  0  0  0  0  0  0  0  0  0  0
   -1.3485   -4.2928   -0.4349 H   0  0  0  0  0  0  0  0  0  0  0  0
   -2.6398   -3.9456    0.7572 H   0  0  0  0  0  0  0  0  0  0  0  0
  1  6  2  0  0  0  0
  2  4  1  0  0  0  0
  2  5  1  0  0  0  0
  2  6  1  0  0  0  0
  3  6  1  0  0  0  0
  3 17  1  0  0  0  0
  3 28  1  0  0  0  0
  4  7  2  0  0  0  0
  4  9  1  0  0  0  0
  5  8  2  0  0  0  0
  5 10  1  0  0  0  0
  7 11  1  0  0  0  0
  7 18  1  0  0  0  0
  8 12  1  0  0  0  0
  8 19  1  0  0  0  0
  9 13  2  0  0  0  0
  9 20  1  0  0  0  0
 10 14  2  0  0  0  0
 10 21  1  0  0  0  0
 11 15  2  0  0  0  0
 11 22  1  0  0  0  0
 12 16  2  0  0  0  0
 12 23  1  0  0  0  0
 13 15  1  0  0  0  0
 13 24  1  0  0  0  0
 14 16  1  0  0  0  0
 14 25  1  0  0  0  0
 15 26  1  0  0  0  0
 16 27  1  0  0  0  0
 17 29  1  0  0  0  0
 17 30  1  0  0  0  0
 17 31  1  0  0  0  0
M  END
> <PUBCHEM_COMPOUND_CID>
25711

> <PUBCHEM_CONFORMER_RMSD>
0.6

> <PUBCHEM_CONFORMER_DIVERSEORDER>
1
2
5
4
3

> <PUBCHEM_MMFF94_PARTIAL_CHARGES>
28
1 -0.57
10 -0.15
11 -0.15
12 -0.15
13 -0.15
14 -0.15
15 -0.15
16 -0.15
17 0.3
18 0.15
19 0.15
2 -0.29
20 0.15
21 0.15
22 0.15
23 0.15
24 0.15
25 0.15
26 0.15
27 0.15
28 0.37
3 -0.73
4 0.12
5 0.12
6 0.69
7 -0.15
8 -0.15
9 -0.15

> <PUBCHEM_EFFECTIVE_ROTOR_COUNT>
4

> <PUBCHEM_PHARMACOPHORE_FEATURES>
4
1 1 acceptor
1 3 donor
6 4 7 9 11 13 15 rings
6 5 8 10 12 14 16 rings

> <PUBCHEM_HEAVY_ATOM_COUNT>
17

> <PUBCHEM_ATOM_DEF_STEREO_COUNT>
0

> <PUBCHEM_ATOM_UDEF_STEREO_COUNT>
0

> <PUBCHEM_BOND_DEF_STEREO_COUNT>
0

> <PUBCHEM_BOND_UDEF_STEREO_COUNT>
0

> <PUBCHEM_ISOTOPIC_ATOM_COUNT>
0

> <PUBCHEM_COMPONENT_COUNT>
1

> <PUBCHEM_CACTVS_TAUTO_COUNT>
2

> <PUBCHEM_CONFORMER_ID>
0000646F00000001

> <PUBCHEM_MMFF94_ENERGY>
82.6843

> <PUBCHEM_FEATURE_SELFOVERLAP>
20.297

> <PUBCHEM_SHAPE_FINGERPRINT>
10090160 65 18337381635770418293
10465860 228 17983019946637941409
10967382 1 18339079281064243308
12553582 1 17547571943197090838
12788726 201 18045216300312519666
13140716 1 18124315170829617097
13380535 76 18412542076668858870
13538477 17 18335413629909646392
13583140 156 17095238133517528657
14178342 30 17981032016866852497
14787075 74 18341325678484063207
15309172 13 18262518087277729480
15442244 35 18408597046682175186
15490181 8 18340492174917436046
15906896 17 18342734165105088231
16945 1 18411145735719741260
1741750 31 18341048601195472800
18186145 218 18339923697378255556
20157964 124 17976535006532528757
20510252 161 18124882510540184680
20645476 183 18409166627543031156
21524375 3 18342168917227884813
2255824 54 17907582428365741183
2334 1 17907576187477378332
23402539 116 18272075119687431757
23419403 2 14785750505356361177
23557571 272 18197788910538468804
23558518 356 18188493600609308290
23559900 14 18273213119577501968
2748010 2 18338815436859509710
305870 269 18193839236721680969
3071541 236 18336538399791729899
3091708 16 9124569368111657811
352729 6 18412266172269953910
4340502 62 18261965029657390505
474 4 18194120720531114385
474229 33 18410293631878772491
54173680 148 18265614466698248778
6333272 397 18410013200035795817
633830 44 18129102216913780173
6992083 37 18114180860788261164
7364860 26 17840586989940556141
74978 22 18408608088969435092
81228 2 18046072819616874963
8272917 22 18051413968470157333
84936 182 17985540053106126440
9709674 26 18343585174578625142

> <PUBCHEM_SHAPE_MULTIPOLES>
334.02
5.77
3.6
0.84
2.51
3.64
-0.01
-3.5
-0.04
-2.39
-0.51
-0.13
-0.06
-0.24

> <PUBCHEM_SHAPE_SELFOVERLAP>
716.698

> <PUBCHEM_SHAPE_VOLUME>
183.7

> <PUBCHEM_COORDINATE_TYPE>
2
5
10

$$$$
