641357
  -OEChem-03212100343D

 33 35  0     0  0  0  0  0  0999 V2000
    0.0000   -1.3691    0.4117 S   0  0  0  0  0  0  0  0  0  0  0  0
    0.7257    1.0657   -0.0207 C   0  0  0  0  0  0  0  0  0  0  0  0
   -0.7256    1.0658   -0.0207 C   0  0  0  0  0  0  0  0  0  0  0  0
    1.2467   -0.2091    0.2056 C   0  0  0  0  0  0  0  0  0  0  0  0
   -1.2467   -0.2092    0.2054 C   0  0  0  0  0  0  0  0  0  0  0  0
    2.6356   -0.4458    0.2472 C   0  0  0  0  0  0  0  0  0  0  0  0
   -2.6357   -0.4458    0.2472 C   0  0  0  0  0  0  0  0  0  0  0  0
    3.2181   -1.8031    0.4878 C   0  0  0  0  0  0  0  0  0  0  0  0
   -3.2181   -1.8031    0.4880 C   0  0  0  0  0  0  0  0  0  0  0  0
    1.6453    2.1305   -0.2099 C   0  0  0  0  0  0  0  0  0  0  0  0
   -1.6452    2.1306   -0.2100 C   0  0  0  0  0  0  0  0  0  0  0  0
    3.5113    0.6237    0.0569 C   0  0  0  0  0  0  0  0  0  0  0  0
   -3.5113    0.6238    0.0568 C   0  0  0  0  0  0  0  0  0  0  0  0
    3.0230    1.9010   -0.1694 C   0  0  0  0  0  0  0  0  0  0  0  0
   -3.0229    1.9011   -0.1696 C   0  0  0  0  0  0  0  0  0  0  0  0
    3.4446   -2.5785   -0.8033 C   0  0  0  0  0  0  0  0  0  0  0  0
   -3.4447   -2.5785   -0.8030 C   0  0  0  0  0  0  0  0  0  0  0  0
    4.1740   -1.7064    1.0189 H   0  0  0  0  0  0  0  0  0  0  0  0
    2.5799   -2.3882    1.1595 H   0  0  0  0  0  0  0  0  0  0  0  0
   -2.5799   -2.3882    1.1596 H   0  0  0  0  0  0  0  0  0  0  0  0
   -4.1740   -1.7063    1.0191 H   0  0  0  0  0  0  0  0  0  0  0  0
    1.2831    3.1401   -0.3892 H   0  0  0  0  0  0  0  0  0  0  0  0
   -1.2829    3.1401   -0.3894 H   0  0  0  0  0  0  0  0  0  0  0  0
    4.5872    0.4679    0.0816 H   0  0  0  0  0  0  0  0  0  0  0  0
   -4.5872    0.4680    0.0814 H   0  0  0  0  0  0  0  0  0  0  0  0
    3.7116    2.7282   -0.3170 H   0  0  0  0  0  0  0  0  0  0  0  0
   -3.7114    2.7283   -0.3174 H   0  0  0  0  0  0  0  0  0  0  0  0
    2.5067   -2.7342   -1.3465 H   0  0  0  0  0  0  0  0  0  0  0  0
    3.8760   -3.5603   -0.5838 H   0  0  0  0  0  0  0  0  0  0  0  0
    4.1332   -2.0473   -1.4691 H   0  0  0  0  0  0  0  0  0  0  0  0
   -4.1333   -2.0473   -1.4688 H   0  0  0  0  0  0  0  0  0  0  0  0
   -3.8761   -3.5603   -0.5834 H   0  0  0  0  0  0  0  0  0  0  0  0
   -2.5068   -2.7342   -1.3463 H   0  0  0  0  0  0  0  0  0  0  0  0
  1  4  1  0  0  0  0
  1  5  1  0  0  0  0
  2  3  1  0  0  0  0
  2  4  1  0  0  0  0
  2 10  2  0  0  0  0
  3  5  1  0  0  0  0
  3 11  2  0  0  0  0
  4  6  2  0  0  0  0
  5  7  2  0  0  0  0
  6  8  1  0  0  0  0
  6 12  1  0  0  0  0
  7  9  1  0  0  0  0
  7 13  1  0  0  0  0
  8 16  1  0  0  0  0
  8 18  1  0  0  0  0
  8 19  1  0  0  0  0
  9 17  1  0  0  0  0
  9 20  1  0  0  0  0
  9 21  1  0  0  0  0
 10 14  1  0  0  0  0
 10 22  1  0  0  0  0
 11 15  1  0  0  0  0
 11 23  1  0  0  0  0
 12 14  2  0  0  0  0
 12 24  1  0  0  0  0
 13 15  2  0  0  0  0
 13 25  1  0  0  0  0
 14 26  1  0  0  0  0
 15 27  1  0  0  0  0
 16 28  1  0  0  0  0
 16 29  1  0  0  0  0
 16 30  1  0  0  0  0
 17 31  1  0  0  0  0
 17 32  1  0  0  0  0
 17 33  1  0  0  0  0
M  END
> <PUBCHEM_COMPOUND_CID>
641357

> <PUBCHEM_CONFORMER_RMSD>
0.6

> <PUBCHEM_CONFORMER_DIVERSEORDER>
1
2

> <PUBCHEM_MMFF94_PARTIAL_CHARGES>
19
1 -0.08
10 -0.15
11 -0.15
12 -0.15
13 -0.15
14 -0.15
15 -0.15
22 0.15
23 0.15
24 0.15
25 0.15
26 0.15
27 0.15
4 0.04
5 0.04
6 -0.14
7 -0.14
8 0.14
9 0.14

> <PUBCHEM_EFFECTIVE_ROTOR_COUNT>
2

> <PUBCHEM_PHARMACOPHORE_FEATURES>
5
1 16 hydrophobe
1 17 hydrophobe
5 1 2 3 4 5 rings
6 2 4 6 10 12 14 rings
6 3 5 7 11 13 15 rings

> <PUBCHEM_HEAVY_ATOM_COUNT>
17

> <PUBCHEM_ATOM_DEF_STEREO_COUNT>
0

> <PUBCHEM_ATOM_UDEF_STEREO_COUNT>
0

> <PUBCHEM_BOND_DEF_STEREO_COUNT>
0

> <PUBCHEM_BOND_UDEF_STEREO_COUNT>
0

> <PUBCHEM_ISOTOPIC_ATOM_COUNT>
0

> <PUBCHEM_COMPONENT_COUNT>
1

> <PUBCHEM_CACTVS_TAUTO_COUNT>
1

> <PUBCHEM_CONFORMER_ID>
0009C94D00000001

> <PUBCHEM_MMFF94_ENERGY>
39.3682

> <PUBCHEM_FEATURE_SELFOVERLAP>
25.488

> <PUBCHEM_SHAPE_FINGERPRINT>
10608611 8 18408319982078091536
10616163 171 18340208586817017183
10756046 5 18408317787560332389
10922523 26 18340767057198364614
10967382 1 18408604746946737128
11132069 177 18335976480683272152
11578080 2 17559373929374178873
116883 192 18053386496572224076
11769659 78 18410289228867264179
12553582 1 18051690237751391303
12839892 36 18196352927057176666
13140716 1 18337108973290950889
13296908 3 18410294692134327378
13583140 156 17560501993495976248
14223421 5 18410575123423344672
14289901 80 18339924912790385089
14576447 43 17982161537642524959
14790565 3 16755233636526874896
14866123 147 16830380866538085754
14965852 173 18410009914427875977
15196674 1 18408604759826149905
15375462 6 18338237192474799758
15442244 35 18337108960622261560
15536298 74 18411699855431470152
16945 1 18409730651143259337
17492 89 18410855477398689195
17804303 29 18264776454112026772
18186145 218 17967531229410881420
19591789 44 16107275989217021816
200 152 18268138945875527647
20281475 54 18341896311574801323
20645477 70 18337103561964941175
21267235 1 18336554896771799691
21307412 95 17697889072263935254
21501502 16 18408886251993435129
21634736 98 18335422361314551406
221490 88 18408612465393403698
23184049 29 18408884027300524618
2334 1 18335984250199956705
23366157 5 17967817154649073840
23402539 116 18264479766371742229
23463225 33 18335984185965390224
23558518 356 18186525435707964299
23559900 14 18341044130303212328
23622692 118 18341035393828419118
2748010 2 18335136466790112956
2871803 45 18264201590188423175
3084891 72 17473816234753533600
335352 9 18120936109773352341
4280585 95 18051424968303727518
5104073 3 18409448080971027081
57096353 35 18117563039842972868
58051976 378 18265051517066593870
5902787 121 18262792948548052146
633830 44 17095247994625283456
69090 78 18337387146092068105
7364860 26 18412826885157480080
74978 22 18337391530631120216
7832392 63 18264485096431314424
8809292 202 18261961738847122563
9709674 26 18335707173496831450

> <PUBCHEM_SHAPE_MULTIPOLES>
353.7
7.07
3.06
0.76
0
0.68
-0.04
2.39
-0.48
0
-0.57
0
0.25
0

> <PUBCHEM_SHAPE_SELFOVERLAP>
761.78

> <PUBCHEM_SHAPE_VOLUME>
196.9

> <PUBCHEM_COORDINATE_TYPE>
2
5
10

$$$$
