71750237
  -OEChem-03212101113D

 31 31  0     1  0  0  0  0  0999 V2000
   -1.4153   -0.5566   -1.7951 O   0  0  0  0  0  0  0  0  0  0  0  0
   -2.8657   -1.1656    0.6162 N   0  0  0  0  0  0  0  0  0  0  0  0
   -2.1005    0.0665    0.4338 C   0  0  2  0  0  0  0  0  0  0  0  0
   -3.0513    1.2001    0.0222 C   0  0  0  0  0  0  0  0  0  0  0  0
   -1.0774   -0.2253   -0.6596 C   0  0  0  0  0  0  0  0  0  0  0  0
    0.3740   -0.1059   -0.3523 C   0  0  0  0  0  0  0  0  0  0  0  0
   -2.3194    2.5202   -0.1871 C   0  0  0  0  0  0  0  0  0  0  0  0
    0.8116    0.8074    0.6070 C   0  0  0  0  0  0  0  0  0  0  0  0
    1.2970   -0.9070   -1.0245 C   0  0  0  0  0  0  0  0  0  0  0  0
   -2.1262   -2.1159    1.4325 C   0  0  0  0  0  0  0  0  0  0  0  0
    3.0948    0.1185    0.2216 C   0  0  0  0  0  0  0  0  0  0  0  0
    2.1718    0.9197    0.8940 C   0  0  0  0  0  0  0  0  0  0  0  0
    2.6573   -0.7948   -0.7377 C   0  0  0  0  0  0  0  0  0  0  0  0
    4.5493    0.2388    0.5289 C   0  0  0  0  0  0  0  0  0  0  0  0
   -1.6357    0.3453    1.3834 H   0  0  0  0  0  0  0  0  0  0  0  0
   -3.5775    0.9436   -0.9062 H   0  0  0  0  0  0  0  0  0  0  0  0
   -3.8175    1.3438    0.7945 H   0  0  0  0  0  0  0  0  0  0  0  0
   -3.7455   -0.9554    1.0877 H   0  0  0  0  0  0  0  0  0  0  0  0
   -1.8103    2.8369    0.7282 H   0  0  0  0  0  0  0  0  0  0  0  0
   -3.0356    3.3034   -0.4567 H   0  0  0  0  0  0  0  0  0  0  0  0
   -1.5836    2.4543   -0.9939 H   0  0  0  0  0  0  0  0  0  0  0  0
    0.1320    1.4669    1.1351 H   0  0  0  0  0  0  0  0  0  0  0  0
    0.9742   -1.6279   -1.7710 H   0  0  0  0  0  0  0  0  0  0  0  0
   -1.1930   -2.4311    0.9557 H   0  0  0  0  0  0  0  0  0  0  0  0
   -2.7326   -3.0169    1.5715 H   0  0  0  0  0  0  0  0  0  0  0  0
   -1.9038   -1.7131    2.4263 H   0  0  0  0  0  0  0  0  0  0  0  0
    2.5012    1.6374    1.6407 H   0  0  0  0  0  0  0  0  0  0  0  0
    3.3665   -1.4265   -1.2660 H   0  0  0  0  0  0  0  0  0  0  0  0
    4.8197   -0.4452    1.3395 H   0  0  0  0  0  0  0  0  0  0  0  0
    5.1599    0.0013   -0.3489 H   0  0  0  0  0  0  0  0  0  0  0  0
    4.8061    1.2600    0.8305 H   0  0  0  0  0  0  0  0  0  0  0  0
  1  5  2  0  0  0  0
  2  3  1  0  0  0  0
  2 10  1  0  0  0  0
  2 18  1  0  0  0  0
  3  4  1  0  0  0  0
  3  5  1  0  0  0  0
  3 15  1  0  0  0  0
  4  7  1  0  0  0  0
  4 16  1  0  0  0  0
  4 17  1  0  0  0  0
  5  6  1  0  0  0  0
  6  8  2  0  0  0  0
  6  9  1  0  0  0  0
  7 19  1  0  0  0  0
  7 20  1  0  0  0  0
  7 21  1  0  0  0  0
  8 12  1  0  0  0  0
  8 22  1  0  0  0  0
  9 13  2  0  0  0  0
  9 23  1  0  0  0  0
 10 24  1  0  0  0  0
 10 25  1  0  0  0  0
 10 26  1  0  0  0  0
 11 12  2  0  0  0  0
 11 13  1  0  0  0  0
 11 14  1  0  0  0  0
 12 27  1  0  0  0  0
 13 28  1  0  0  0  0
 14 29  1  0  0  0  0
 14 30  1  0  0  0  0
 14 31  1  0  0  0  0
M  END
> <PUBCHEM_COMPOUND_CID>
71750237

> <PUBCHEM_CONFORMER_RMSD>
0.6

> <PUBCHEM_CONFORMER_DIVERSEORDER>
2
32
7
28
41
38
15
35
42
23
34
20
6
24
33
1
29
49
43
37
17
39
18
4
16
14
21
48
40
45
31
26
44
25
5
47
11
36
13
22
19
46
10
30
27
8
3
9
12

> <PUBCHEM_MMFF94_PARTIAL_CHARGES>
17
1 -0.57
10 0.27
11 -0.14
12 -0.15
13 -0.15
14 0.14
18 0.36
2 -0.9
22 0.15
23 0.15
27 0.15
28 0.15
3 0.33
5 0.42
6 0.09
8 -0.15
9 -0.15

> <PUBCHEM_EFFECTIVE_ROTOR_COUNT>
4

> <PUBCHEM_PHARMACOPHORE_FEATURES>
5
1 1 acceptor
1 2 cation
1 2 donor
1 7 hydrophobe
6 6 8 9 11 12 13 rings

> <PUBCHEM_HEAVY_ATOM_COUNT>
14

> <PUBCHEM_ATOM_DEF_STEREO_COUNT>
0

> <PUBCHEM_ATOM_UDEF_STEREO_COUNT>
1

> <PUBCHEM_BOND_DEF_STEREO_COUNT>
0

> <PUBCHEM_BOND_UDEF_STEREO_COUNT>
0

> <PUBCHEM_ISOTOPIC_ATOM_COUNT>
0

> <PUBCHEM_COMPONENT_COUNT>
1

> <PUBCHEM_CACTVS_TAUTO_COUNT>
7

> <PUBCHEM_CONFORMER_ID>
0446D25D00000002

> <PUBCHEM_MMFF94_ENERGY>
30.1027

> <PUBCHEM_FEATURE_SELFOVERLAP>
25.371

> <PUBCHEM_SHAPE_FINGERPRINT>
10608611 8 18271804596977662776
10922523 26 18202284675976887676
11471102 22 18130235955257029698
124424 183 18271238322919572624
12500047 106 18187923937104609827
12932764 1 17775002418655917212
13214271 11 18412260649179492044
13294875 104 17472964113442474017
13296908 3 18131359578962957294
13675066 3 18273492373733919034
14144814 61 16558754503103045354
14289901 80 18041284361063919824
15219456 202 18201723903439821612
15279308 16 18343301435700436020
15309172 13 17203616994545959654
15653759 3 18411423920561592848
15775835 57 17418091026894509453
16945 1 18188787075492119509
17844478 74 18342184400611302209
18186145 218 16773795952667032776
18219364 16 17561365092827775578
19026448 5 17603871109220958972
19049666 15 18196946482372704699
20279233 1 18342179955325529418
20645477 70 17417532389589426846
20715346 28 18130798836321935390
21524375 3 17980194189376089901
2306618 200 17203605999735435683
23402539 116 18408595968803529181
23402655 69 17416954037778345205
23493267 7 18337954489548938360
23559900 14 18265902363563923998
25 1 17769096735598034149
27216 239 18273490191273724545
2748010 2 17916877802756542492
305870 269 17826226290324767025
3248919 1 18260265256845694022
568465 68 18129114474882246842
63268167 104 17275102812678329674
81228 2 18261405463821375473
8809292 202 18339369552102080962

> <PUBCHEM_SHAPE_MULTIPOLES>
277.26
6.31
1.83
1.24
4.17
0.3
-0.17
0.77
1.25
-2.05
0.42
-0.2
-0.45
0.99

> <PUBCHEM_SHAPE_SELFOVERLAP>
561.347

> <PUBCHEM_SHAPE_VOLUME>
163.5

> <PUBCHEM_COORDINATE_TYPE>
2
5
10

$$$$
