57404063
  -OEChem-03212102003D

 58 62  0     0  0  0  0  0  0999 V2000
   -0.8747   -1.8208   -0.7009 O   0  0  0  0  0  0  0  0  0  0  0  0
   -1.2349    0.1910    0.3942 N   0  0  0  0  0  0  0  0  0  0  0  0
    1.4541    0.2685    0.9492 N   0  0  0  0  0  0  0  0  0  0  0  0
    2.7700    0.0167    1.0501 N   0  0  0  0  0  0  0  0  0  0  0  0
   -2.6649    0.2426    0.1830 C   0  0  0  0  0  0  0  0  0  0  0  0
   -4.5017    0.3127   -1.5562 C   0  0  0  0  0  0  0  0  0  0  0  0
   -4.7695    1.5852    0.6038 C   0  0  0  0  0  0  0  0  0  0  0  0
   -4.8665   -0.9336    0.6050 C   0  0  0  0  0  0  0  0  0  0  0  0
   -2.9814    0.2542   -1.3282 C   0  0  0  0  0  0  0  0  0  0  0  0
   -3.2482    1.5216    0.8239 C   0  0  0  0  0  0  0  0  0  0  0  0
   -3.3449   -0.9870    0.8250 C   0  0  0  0  0  0  0  0  0  0  0  0
   -5.0618    1.5895   -0.9064 C   0  0  0  0  0  0  0  0  0  0  0  0
   -5.1585   -0.9164   -0.9052 C   0  0  0  0  0  0  0  0  0  0  0  0
   -5.4249    0.3495    1.2432 C   0  0  0  0  0  0  0  0  0  0  0  0
   -0.4533   -0.8526   -0.0736 C   0  0  0  0  0  0  0  0  0  0  0  0
    0.9945   -0.7709    0.2487 C   0  0  0  0  0  0  0  0  0  0  0  0
    2.0091   -1.6879   -0.1005 C   0  0  0  0  0  0  0  0  0  0  0  0
    3.1678   -1.1427    0.4409 C   0  0  0  0  0  0  0  0  0  0  0  0
    2.0831   -2.9024   -0.8030 C   0  0  0  0  0  0  0  0  0  0  0  0
    3.6123    0.9503    1.7618 C   0  0  0  0  0  0  0  0  0  0  0  0
    4.4214   -1.7464    0.3220 C   0  0  0  0  0  0  0  0  0  0  0  0
    3.5427    2.3834    1.2221 C   0  0  0  0  0  0  0  0  0  0  0  0
    3.3309   -3.5245   -0.9338 C   0  0  0  0  0  0  0  0  0  0  0  0
    4.4792   -2.9546   -0.3804 C   0  0  0  0  0  0  0  0  0  0  0  0
    4.0609    2.5088   -0.2141 C   0  0  0  0  0  0  0  0  0  0  0  0
    4.0546    3.9652   -0.6797 C   0  0  0  0  0  0  0  0  0  0  0  0
    4.6047    4.1006   -2.0908 C   0  0  0  0  0  0  0  0  0  0  0  0
   -4.7151    0.3213   -2.6309 H   0  0  0  0  0  0  0  0  0  0  0  0
   -5.1718    2.4960    1.0612 H   0  0  0  0  0  0  0  0  0  0  0  0
   -5.3384   -1.8097    1.0637 H   0  0  0  0  0  0  0  0  0  0  0  0
   -2.5009    1.1177   -1.8074 H   0  0  0  0  0  0  0  0  0  0  0  0
   -2.5923   -0.6320   -1.8405 H   0  0  0  0  0  0  0  0  0  0  0  0
   -3.0268    1.5434    1.8991 H   0  0  0  0  0  0  0  0  0  0  0  0
   -2.7728    2.4131    0.3938 H   0  0  0  0  0  0  0  0  0  0  0  0
   -2.9725   -1.9301    0.4113 H   0  0  0  0  0  0  0  0  0  0  0  0
   -3.1264   -1.0198    1.9008 H   0  0  0  0  0  0  0  0  0  0  0  0
   -6.1433    1.6533   -1.0781 H   0  0  0  0  0  0  0  0  0  0  0  0
   -4.6126    2.4751   -1.3724 H   0  0  0  0  0  0  0  0  0  0  0  0
   -4.7790   -1.8344   -1.3706 H   0  0  0  0  0  0  0  0  0  0  0  0
   -6.2417   -0.8968   -1.0768 H   0  0  0  0  0  0  0  0  0  0  0  0
   -6.5129    0.3914    1.1094 H   0  0  0  0  0  0  0  0  0  0  0  0
   -5.2370    0.3428    2.3239 H   0  0  0  0  0  0  0  0  0  0  0  0
   -0.7908    0.9447    0.9115 H   0  0  0  0  0  0  0  0  0  0  0  0
    1.2031   -3.3624   -1.2413 H   0  0  0  0  0  0  0  0  0  0  0  0
    3.2798    0.9326    2.8065 H   0  0  0  0  0  0  0  0  0  0  0  0
    4.6467    0.5957    1.7449 H   0  0  0  0  0  0  0  0  0  0  0  0
    5.3190   -1.3126    0.7474 H   0  0  0  0  0  0  0  0  0  0  0  0
    2.5134    2.7591    1.2737 H   0  0  0  0  0  0  0  0  0  0  0  0
    4.1438    3.0246    1.8786 H   0  0  0  0  0  0  0  0  0  0  0  0
    3.4055   -4.4645   -1.4744 H   0  0  0  0  0  0  0  0  0  0  0  0
    5.4355   -3.4583   -0.4969 H   0  0  0  0  0  0  0  0  0  0  0  0
    3.4419    1.9093   -0.8919 H   0  0  0  0  0  0  0  0  0  0  0  0
    5.0812    2.1101   -0.2696 H   0  0  0  0  0  0  0  0  0  0  0  0
    4.6590    4.5770    0.0000 H   0  0  0  0  0  0  0  0  0  0  0  0
    3.0326    4.3605   -0.6508 H   0  0  0  0  0  0  0  0  0  0  0  0
    4.0046    3.5247   -2.8025 H   0  0  0  0  0  0  0  0  0  0  0  0
    5.6383    3.7442   -2.1449 H   0  0  0  0  0  0  0  0  0  0  0  0
    4.5900    5.1492   -2.4043 H   0  0  0  0  0  0  0  0  0  0  0  0
  1 15  2  0  0  0  0
  2  5  1  0  0  0  0
  2 15  1  0  0  0  0
  2 43  1  0  0  0  0
  3  4  1  0  0  0  0
  3 16  2  0  0  0  0
  4 18  1  0  0  0  0
  4 20  1  0  0  0  0
  5  9  1  0  0  0  0
  5 10  1  0  0  0  0
  5 11  1  0  0  0  0
  6  9  1  0  0  0  0
  6 12  1  0  0  0  0
  6 13  1  0  0  0  0
  6 28  1  0  0  0  0
  7 10  1  0  0  0  0
  7 12  1  0  0  0  0
  7 14  1  0  0  0  0
  7 29  1  0  0  0  0
  8 11  1  0  0  0  0
  8 13  1  0  0  0  0
  8 14  1  0  0  0  0
  8 30  1  0  0  0  0
  9 31  1  0  0  0  0
  9 32  1  0  0  0  0
 10 33  1  0  0  0  0
 10 34  1  0  0  0  0
 11 35  1  0  0  0  0
 11 36  1  0  0  0  0
 12 37  1  0  0  0  0
 12 38  1  0  0  0  0
 13 39  1  0  0  0  0
 13 40  1  0  0  0  0
 14 41  1  0  0  0  0
 14 42  1  0  0  0  0
 15 16  1  0  0  0  0
 16 17  1  0  0  0  0
 17 18  1  0  0  0  0
 17 19  2  0  0  0  0
 18 21  2  0  0  0  0
 19 23  1  0  0  0  0
 19 44  1  0  0  0  0
 20 22  1  0  0  0  0
 20 45  1  0  0  0  0
 20 46  1  0  0  0  0
 21 24  1  0  0  0  0
 21 47  1  0  0  0  0
 22 25  1  0  0  0  0
 22 48  1  0  0  0  0
 22 49  1  0  0  0  0
 23 24  2  0  0  0  0
 23 50  1  0  0  0  0
 24 51  1  0  0  0  0
 25 26  1  0  0  0  0
 25 52  1  0  0  0  0
 25 53  1  0  0  0  0
 26 27  1  0  0  0  0
 26 54  1  0  0  0  0
 26 55  1  0  0  0  0
 27 56  1  0  0  0  0
 27 57  1  0  0  0  0
 27 58  1  0  0  0  0
M  END
> <PUBCHEM_COMPOUND_CID>
57404063

> <PUBCHEM_CONFORMER_RMSD>
1

> <PUBCHEM_CONFORMER_DIVERSEORDER>
1
21
15
33
18
4
32
24
14
8
31
28
29
9
22
12
6
27
23
11
25
7
10
16
26
30
19
20
2
5
3
17
13

> <PUBCHEM_MMFF94_PARTIAL_CHARGES>
18
1 -0.57
15 0.72
16 0.2
18 -0.15
19 -0.15
2 -0.73
20 0.26
21 -0.15
23 -0.15
24 -0.15
3 -0.71
4 0.31
43 0.37
44 0.15
47 0.15
5 0.3
50 0.15
51 0.15

> <PUBCHEM_EFFECTIVE_ROTOR_COUNT>
8.2

> <PUBCHEM_PHARMACOPHORE_FEATURES>
10
1 1 acceptor
1 2 donor
1 27 hydrophobe
1 3 acceptor
5 3 4 16 17 18 rings
6 17 18 19 21 23 24 rings
6 5 6 7 9 10 12 rings
6 5 6 8 9 11 13 rings
6 5 7 8 10 11 14 rings
6 6 7 8 12 13 14 rings

> <PUBCHEM_HEAVY_ATOM_COUNT>
27

> <PUBCHEM_ATOM_DEF_STEREO_COUNT>
0

> <PUBCHEM_ATOM_UDEF_STEREO_COUNT>
0

> <PUBCHEM_BOND_DEF_STEREO_COUNT>
0

> <PUBCHEM_BOND_UDEF_STEREO_COUNT>
0

> <PUBCHEM_ISOTOPIC_ATOM_COUNT>
0

> <PUBCHEM_COMPONENT_COUNT>
1

> <PUBCHEM_CACTVS_TAUTO_COUNT>
2

> <PUBCHEM_CONFORMER_ID>
036BEA9F00000001

> <PUBCHEM_MMFF94_ENERGY>
49.877

> <PUBCHEM_FEATURE_SELFOVERLAP>
63.372

> <PUBCHEM_SHAPE_FINGERPRINT>
10305334 12 13627784373351260750
10369192 42 17899708035457572492
10670039 82 18341338872313379896
10763959 59 18266453217929389420
10937287 8 18050004699685517564
11405975 8 18130224840182387243
12107183 9 17054156853215398499
12236239 1 16486680373372936803
12403259 415 18187926136771476019
12616971 3 17560797698147919699
13583140 156 17532909671782303954
14790565 3 18050852422865579224
15064981 194 18272095951297298849
15163728 17 18192443085183855964
15357212 105 18265358156489735969
15788980 27 17987793004329684083
15961568 22 17749668596894915364
16991981 162 16675593303355349308
17349148 13 16343697690800340763
17844677 252 18270964544656086299
18785283 64 18409446990729736934
20567600 9 18340498828355066716
21033648 29 18041551426340884853
21033650 10 14692307139353919219
21065198 57 18270962337048586811
21365058 113 18194697981721501574
21641784 216 17907039291893055102
21709351 56 18200586982673492279
22149856 69 18200880673291736059
23559900 14 18272080552894933747
239999 70 18335134276578481506
245318 6 17970637500500728564
312423 11 17846223219704418075
34797466 226 18187078477746742433
397830 11 18187097178419640761
4015057 19 18272078388774488707
44880568 143 18115286914558545757
474 4 18335693988047186712
5104073 3 18130783426512625587
5281201 14 18340765944664678362
57724786 102 18410299081833925921
6034566 193 18045782557258682148
6086070 43 17899673705498599215
633830 44 18336819806534429403
67856867 119 17917135135411008434
9841814 1 18262227808256496210

> <PUBCHEM_SHAPE_MULTIPOLES>
534.83
13.89
4.31
1.49
9.17
2.23
0.2
4.64
1
-10.26
2.18
-0.25
0.85
-0.67

> <PUBCHEM_SHAPE_SELFOVERLAP>
1163.826

> <PUBCHEM_SHAPE_VOLUME>
286.8

> <PUBCHEM_COORDINATE_TYPE>
2
5
10

$$$$
