71316576
  -OEChem-03212100573D

 31 31  0     1  0  0  0  0  0999 V2000
    2.1007    1.5835   -0.8466 O   0  0  0  0  0  0  0  0  0  0  0  0
    3.3733   -1.0279   -0.4455 N   0  0  0  0  0  0  0  0  0  0  0  0
    2.5847   -0.3146    0.5611 C   0  0  2  0  0  0  0  0  0  0  0  0
    0.1821    0.4944   -0.0493 C   0  0  0  0  0  0  0  0  0  0  0  0
    1.6232    0.6513   -0.1652 C   0  0  0  0  0  0  0  0  0  0  0  0
   -2.5824    0.1922    0.1715 C   0  0  0  0  0  0  0  0  0  0  0  0
    3.5160    0.4599    1.4846 C   0  0  0  0  0  0  0  0  0  0  0  0
   -4.0604    0.0305    0.2901 C   0  0  0  0  0  0  0  0  0  0  0  0
   -0.6484    0.8850   -1.0997 C   0  0  0  0  0  0  0  0  0  0  0  0
   -0.3699   -0.0473    1.1116 C   0  0  0  0  0  0  0  0  0  0  0  0
   -2.0306    0.7340   -0.9894 C   0  0  0  0  0  0  0  0  0  0  0  0
   -1.7521   -0.1984    1.2221 C   0  0  0  0  0  0  0  0  0  0  0  0
   -4.5390   -1.3259   -0.2213 C   0  0  0  0  0  0  0  0  0  0  0  0
    2.6027   -2.1167   -1.0241 C   0  0  0  0  0  0  0  0  0  0  0  0
    2.0474   -1.0394    1.1783 H   0  0  0  0  0  0  0  0  0  0  0  0
    4.1365    1.1748    0.9318 H   0  0  0  0  0  0  0  0  0  0  0  0
    2.9387    1.0318    2.2197 H   0  0  0  0  0  0  0  0  0  0  0  0
    4.1831   -0.2148    2.0323 H   0  0  0  0  0  0  0  0  0  0  0  0
   -4.3680    0.1542    1.3360 H   0  0  0  0  0  0  0  0  0  0  0  0
   -4.5699    0.8287   -0.2642 H   0  0  0  0  0  0  0  0  0  0  0  0
   -0.2366    1.3040   -2.0142 H   0  0  0  0  0  0  0  0  0  0  0  0
    0.2388   -0.3305    1.9646 H   0  0  0  0  0  0  0  0  0  0  0  0
    4.2075   -1.4211   -0.0096 H   0  0  0  0  0  0  0  0  0  0  0  0
   -2.6667    1.0394   -1.8160 H   0  0  0  0  0  0  0  0  0  0  0  0
   -2.1706   -0.6162    2.1340 H   0  0  0  0  0  0  0  0  0  0  0  0
    1.7153   -1.7552   -1.5528 H   0  0  0  0  0  0  0  0  0  0  0  0
    2.2973   -2.8471   -0.2674 H   0  0  0  0  0  0  0  0  0  0  0  0
    3.2201   -2.6430   -1.7592 H   0  0  0  0  0  0  0  0  0  0  0  0
   -4.2863   -1.4623   -1.2782 H   0  0  0  0  0  0  0  0  0  0  0  0
   -5.6257   -1.4064   -0.1181 H   0  0  0  0  0  0  0  0  0  0  0  0
   -4.0816   -2.1457    0.3429 H   0  0  0  0  0  0  0  0  0  0  0  0
  1  5  2  0  0  0  0
  2  3  1  0  0  0  0
  2 14  1  0  0  0  0
  2 23  1  0  0  0  0
  3  5  1  0  0  0  0
  3  7  1  0  0  0  0
  3 15  1  0  0  0  0
  4  5  1  0  0  0  0
  4  9  2  0  0  0  0
  4 10  1  0  0  0  0
  6  8  1  0  0  0  0
  6 11  2  0  0  0  0
  6 12  1  0  0  0  0
  7 16  1  0  0  0  0
  7 17  1  0  0  0  0
  7 18  1  0  0  0  0
  8 13  1  0  0  0  0
  8 19  1  0  0  0  0
  8 20  1  0  0  0  0
  9 11  1  0  0  0  0
  9 21  1  0  0  0  0
 10 12  2  0  0  0  0
 10 22  1  0  0  0  0
 11 24  1  0  0  0  0
 12 25  1  0  0  0  0
 13 29  1  0  0  0  0
 13 30  1  0  0  0  0
 13 31  1  0  0  0  0
 14 26  1  0  0  0  0
 14 27  1  0  0  0  0
 14 28  1  0  0  0  0
M  END
> <PUBCHEM_COMPOUND_CID>
71316576

> <PUBCHEM_CONFORMER_RMSD>
0.6

> <PUBCHEM_CONFORMER_DIVERSEORDER>
1
67
65
39
57
62
42
64
25
13
33
58
47
63
40
26
6
68
34
36
51
61
29
18
20
24
49
46
59
43
19
41
4
38
56
27
11
54
48
45
53
16
8
50
10
22
35
14
55
31
5
12
9
28
17
21
37
60
66
3
44
32
30
23
52
7
15
2

> <PUBCHEM_MMFF94_PARTIAL_CHARGES>
17
1 -0.57
10 -0.15
11 -0.15
12 -0.15
14 0.27
2 -0.9
21 0.15
22 0.15
23 0.36
24 0.15
25 0.15
3 0.33
4 0.09
5 0.42
6 -0.14
8 0.14
9 -0.15

> <PUBCHEM_EFFECTIVE_ROTOR_COUNT>
4

> <PUBCHEM_PHARMACOPHORE_FEATURES>
5
1 1 acceptor
1 13 hydrophobe
1 2 cation
1 2 donor
6 4 6 9 10 11 12 rings

> <PUBCHEM_HEAVY_ATOM_COUNT>
14

> <PUBCHEM_ATOM_DEF_STEREO_COUNT>
0

> <PUBCHEM_ATOM_UDEF_STEREO_COUNT>
1

> <PUBCHEM_BOND_DEF_STEREO_COUNT>
0

> <PUBCHEM_BOND_UDEF_STEREO_COUNT>
0

> <PUBCHEM_ISOTOPIC_ATOM_COUNT>
0

> <PUBCHEM_COMPONENT_COUNT>
1

> <PUBCHEM_CACTVS_TAUTO_COUNT>
7

> <PUBCHEM_CONFORMER_ID>
0440346000000001

> <PUBCHEM_MMFF94_ENERGY>
30.9936

> <PUBCHEM_FEATURE_SELFOVERLAP>
25.371

> <PUBCHEM_SHAPE_FINGERPRINT>
11206711 2 16877937201208066501
11769659 78 18272932726346844615
12032990 46 17095246947243866849
12251169 10 15482664650715800922
12670546 56 17845937325707532817
13296908 3 18338513036907640884
13583140 156 17632566150602764961
13675066 3 18060416889704973129
13705890 14 18413107268637374179
13760787 5 15647053738017630929
14252887 29 18410575076347509690
14289901 80 18131354145850303697
14350558 41 18273218594605620126
14911166 2 16660642977490086987
14993402 34 14851610968233806055
15375462 189 16630234866168254227
15848700 24 17894908537988657829
16945 1 17458347407541458617
18186145 218 17240203248714044181
19026448 4 18273208673563443249
19026448 5 18272098218628061345
200 152 18187916314075716529
20201158 50 18040437672300887914
20279233 1 17749392576557493616
20645477 70 18187929520889389023
20671657 53 17240479234696287597
212847 35 11023842668540745847
21501925 9 18040425620601725104
22445834 79 17059214735414861030
22485316 2 17846493751552844499
23048698 100 17060618888951363162
23402539 116 17821993320855122573
2748010 2 16807313524825084417
42 15 17846782879723446283
474 4 17201620367793703152
4990 188 17967811652658798127
57812782 119 18259700107963936433
581208 293 18410012156306021274
69090 78 18041273369999905763
7364860 26 18188219817850622172

> <PUBCHEM_SHAPE_MULTIPOLES>
277.26
7.41
1.44
1.29
3.38
0.82
0.1
2.44
0.91
-0.95
-0.46
-0.34
-0.22
0.54

> <PUBCHEM_SHAPE_SELFOVERLAP>
561.092

> <PUBCHEM_SHAPE_VOLUME>
163.3

> <PUBCHEM_COORDINATE_TYPE>
2
5
10

$$$$
