73817
  -OEChem-03202123493D

 18 19  0     0  0  0  0  0  0999 V2000
   -1.0054   -2.0546   -0.0004 S   0  0  0  0  0  0  0  0  0  0  0  0
   -0.1865    0.3978    0.0000 C   0  0  0  0  0  0  0  0  0  0  0  0
   -1.6215    0.4300    0.0003 C   0  0  0  0  0  0  0  0  0  0  0  0
    0.2901   -0.9167    0.0000 C   0  0  0  0  0  0  0  0  0  0  0  0
    0.7583    1.4523   -0.0001 C   0  0  0  0  0  0  0  0  0  0  0  0
   -2.1848   -0.8240   -0.0001 C   0  0  0  0  0  0  0  0  0  0  0  0
    1.6701   -1.1999    0.0003 C   0  0  0  0  0  0  0  0  0  0  0  0
   -2.4249    1.6785    0.0001 C   0  0  0  0  0  0  0  0  0  0  0  0
    2.1279    1.1748   -0.0004 C   0  0  0  0  0  0  0  0  0  0  0  0
    2.5767   -0.1381    0.0003 C   0  0  0  0  0  0  0  0  0  0  0  0
    0.4271    2.4880   -0.0002 H   0  0  0  0  0  0  0  0  0  0  0  0
   -3.2353   -1.0802   -0.0003 H   0  0  0  0  0  0  0  0  0  0  0  0
    2.0306   -2.2247    0.0003 H   0  0  0  0  0  0  0  0  0  0  0  0
   -3.5000    1.4693    0.0007 H   0  0  0  0  0  0  0  0  0  0  0  0
   -2.2016    2.2790    0.8881 H   0  0  0  0  0  0  0  0  0  0  0  0
   -2.2025    2.2781   -0.8888 H   0  0  0  0  0  0  0  0  0  0  0  0
    2.8430    1.9927   -0.0006 H   0  0  0  0  0  0  0  0  0  0  0  0
    3.6436   -0.3441    0.0005 H   0  0  0  0  0  0  0  0  0  0  0  0
  1  4  1  0  0  0  0
  1  6  1  0  0  0  0
  2  3  1  0  0  0  0
  2  4  1  0  0  0  0
  2  5  2  0  0  0  0
  3  6  2  0  0  0  0
  3  8  1  0  0  0  0
  4  7  2  0  0  0  0
  5  9  1  0  0  0  0
  5 11  1  0  0  0  0
  6 12  1  0  0  0  0
  7 10  1  0  0  0  0
  7 13  1  0  0  0  0
  8 14  1  0  0  0  0
  8 15  1  0  0  0  0
  8 16  1  0  0  0  0
  9 10  2  0  0  0  0
  9 17  1  0  0  0  0
 10 18  1  0  0  0  0
M  END
> <PUBCHEM_COMPOUND_CID>
73817

> <PUBCHEM_CONFORMER_RMSD>
0.4

> <PUBCHEM_CONFORMER_DIVERSEORDER>
1

> <PUBCHEM_MMFF94_PARTIAL_CHARGES>
14
1 -0.08
10 -0.15
11 0.15
12 0.15
13 0.15
17 0.15
18 0.15
3 -0.18
4 0.04
5 -0.15
6 -0.11
7 -0.15
8 0.18
9 -0.15

> <PUBCHEM_EFFECTIVE_ROTOR_COUNT>
0

> <PUBCHEM_PHARMACOPHORE_FEATURES>
2
5 1 2 3 4 6 rings
6 2 4 5 7 9 10 rings

> <PUBCHEM_HEAVY_ATOM_COUNT>
10

> <PUBCHEM_ATOM_DEF_STEREO_COUNT>
0

> <PUBCHEM_ATOM_UDEF_STEREO_COUNT>
0

> <PUBCHEM_BOND_DEF_STEREO_COUNT>
0

> <PUBCHEM_BOND_UDEF_STEREO_COUNT>
0

> <PUBCHEM_ISOTOPIC_ATOM_COUNT>
0

> <PUBCHEM_COMPONENT_COUNT>
1

> <PUBCHEM_CACTVS_TAUTO_COUNT>
1

> <PUBCHEM_CONFORMER_ID>
0001205900000001

> <PUBCHEM_MMFF94_ENERGY>
20.1024

> <PUBCHEM_FEATURE_SELFOVERLAP>
10.208

> <PUBCHEM_SHAPE_FINGERPRINT>
11206711 2 18338518658887930485
12423570 1 12723041767884424615
12897270 3 18194681694488057302
13380535 76 18339074900403258287
14325111 11 18410575076126132193
16945 1 18338516472754935526
193761 8 18338516464149085734
19973954 147 18338237171063318684
20871998 184 18128824229487359063
21040471 1 18410855455970409508
21501502 16 18410574015221503478
23402655 69 18196920094774477941
23552423 10 18189053264590643862
23559900 14 18271536312984455854
241688 4 17835519701636101499
2748010 2 18338801117433322047
369184 2 17988643046622890955
5084963 1 18201721790152420731
528886 8 18339074870016629984
66348 1 18410291406378707943

> <PUBCHEM_SHAPE_MULTIPOLES>
209.64
3.49
2.06
0.63
0.35
0.21
0
-0.68
0
-0.66
0
-0.01
0.02
0

> <PUBCHEM_SHAPE_SELFOVERLAP>
442.78

> <PUBCHEM_SHAPE_VOLUME>
120.1

> <PUBCHEM_COORDINATE_TYPE>
2
5
10

$$$$
