27518
  -OEChem-03212101313D

 32 31  0     0  0  0  0  0  0999 V2000
   -0.0170    1.5770    0.3651 C   0  0  0  0  0  0  0  0  0  0  0  0
   -1.1909    0.9794   -0.4356 C   0  0  0  0  0  0  0  0  0  0  0  0
    0.9861    0.5362    0.9073 C   0  0  0  0  0  0  0  0  0  0  0  0
   -1.9499   -0.1178    0.3165 C   0  0  0  0  0  0  0  0  0  0  0  0
    1.8229   -0.1782   -0.1601 C   0  0  0  0  0  0  0  0  0  0  0  0
    0.6889    2.6477   -0.4739 C   0  0  0  0  0  0  0  0  0  0  0  0
   -3.0896   -0.6833   -0.5324 C   0  0  0  0  0  0  0  0  0  0  0  0
    2.8459   -1.1531    0.4314 C   0  0  0  0  0  0  0  0  0  0  0  0
   -3.8279   -1.7950    0.1963 C   0  0  0  0  0  0  0  0  0  0  0  0
    3.7315   -1.8130   -0.6144 C   0  0  0  0  0  0  0  0  0  0  0  0
   -0.4462    2.0818    1.2416 H   0  0  0  0  0  0  0  0  0  0  0  0
   -1.8903    1.7840   -0.6969 H   0  0  0  0  0  0  0  0  0  0  0  0
   -0.8189    0.5724   -1.3843 H   0  0  0  0  0  0  0  0  0  0  0  0
    0.4790   -0.1998    1.5399 H   0  0  0  0  0  0  0  0  0  0  0  0
    1.6782    1.0618    1.5798 H   0  0  0  0  0  0  0  0  0  0  0  0
   -2.3465    0.2839    1.2563 H   0  0  0  0  0  0  0  0  0  0  0  0
   -1.2770   -0.9438    0.5686 H   0  0  0  0  0  0  0  0  0  0  0  0
    1.1617   -0.7260   -0.8413 H   0  0  0  0  0  0  0  0  0  0  0  0
    2.3668    0.5571   -0.7631 H   0  0  0  0  0  0  0  0  0  0  0  0
    0.0030    3.4748   -0.6886 H   0  0  0  0  0  0  0  0  0  0  0  0
    1.0354    2.2548   -1.4350 H   0  0  0  0  0  0  0  0  0  0  0  0
    1.5489    3.0628    0.0619 H   0  0  0  0  0  0  0  0  0  0  0  0
   -2.6931   -1.0753   -1.4763 H   0  0  0  0  0  0  0  0  0  0  0  0
   -3.7973    0.1150   -0.7840 H   0  0  0  0  0  0  0  0  0  0  0  0
    2.3193   -1.9322    0.9954 H   0  0  0  0  0  0  0  0  0  0  0  0
    3.4849   -0.6203    1.1457 H   0  0  0  0  0  0  0  0  0  0  0  0
   -4.6400   -2.1823   -0.4269 H   0  0  0  0  0  0  0  0  0  0  0  0
   -3.1545   -2.6255    0.4311 H   0  0  0  0  0  0  0  0  0  0  0  0
   -4.2623   -1.4293    1.1322 H   0  0  0  0  0  0  0  0  0  0  0  0
    4.4381   -2.4987   -0.1368 H   0  0  0  0  0  0  0  0  0  0  0  0
    4.3050   -1.0637   -1.1693 H   0  0  0  0  0  0  0  0  0  0  0  0
    3.1309   -2.3843   -1.3291 H   0  0  0  0  0  0  0  0  0  0  0  0
  1  2  1  0  0  0  0
  1  3  1  0  0  0  0
  1  6  1  0  0  0  0
  1 11  1  0  0  0  0
  2  4  1  0  0  0  0
  2 12  1  0  0  0  0
  2 13  1  0  0  0  0
  3  5  1  0  0  0  0
  3 14  1  0  0  0  0
  3 15  1  0  0  0  0
  4  7  1  0  0  0  0
  4 16  1  0  0  0  0
  4 17  1  0  0  0  0
  5  8  1  0  0  0  0
  5 18  1  0  0  0  0
  5 19  1  0  0  0  0
  6 20  1  0  0  0  0
  6 21  1  0  0  0  0
  6 22  1  0  0  0  0
  7  9  1  0  0  0  0
  7 23  1  0  0  0  0
  7 24  1  0  0  0  0
  8 10  1  0  0  0  0
  8 25  1  0  0  0  0
  8 26  1  0  0  0  0
  9 27  1  0  0  0  0
  9 28  1  0  0  0  0
  9 29  1  0  0  0  0
 10 30  1  0  0  0  0
 10 31  1  0  0  0  0
 10 32  1  0  0  0  0
M  END
> <PUBCHEM_COMPOUND_CID>
27518

> <PUBCHEM_CONFORMER_RMSD>
0.6

> <PUBCHEM_CONFORMER_DIVERSEORDER>
1
5
54
49
72
24
33
73
37
21
82
20
69
28
40
26
10
16
65
63
6
80
75
32
70
22
14
9
62
67
38
2
19
18
71
43
55
74
23
66
4
78
42
29
60
81
8
68
48
7
3
30
44
61
59
46
34
52
35
39
58
79
17
51
53
15
77
27
25
76
64
57
50
45
12
41
56
11
36
31
47
13

> <PUBCHEM_MMFF94_PARTIAL_CHARGES>
0

> <PUBCHEM_EFFECTIVE_ROTOR_COUNT>
6

> <PUBCHEM_PHARMACOPHORE_FEATURES>
3
1 10 hydrophobe
1 6 hydrophobe
1 9 hydrophobe

> <PUBCHEM_HEAVY_ATOM_COUNT>
10

> <PUBCHEM_ATOM_DEF_STEREO_COUNT>
0

> <PUBCHEM_ATOM_UDEF_STEREO_COUNT>
0

> <PUBCHEM_BOND_DEF_STEREO_COUNT>
0

> <PUBCHEM_BOND_UDEF_STEREO_COUNT>
0

> <PUBCHEM_ISOTOPIC_ATOM_COUNT>
0

> <PUBCHEM_COMPONENT_COUNT>
1

> <PUBCHEM_CACTVS_TAUTO_COUNT>
1

> <PUBCHEM_CONFORMER_ID>
00006B7E00000001

> <PUBCHEM_MMFF94_ENERGY>
1.6645

> <PUBCHEM_FEATURE_SELFOVERLAP>
15.224

> <PUBCHEM_SHAPE_FINGERPRINT>
11127187 94 18189893119670175047
12006461 19 18343302591279085051
12841375 25 18409449184777341861
14128692 85 18408327665953678820
14251710 61 18413674603700144383
14252887 29 18341045319444644786
14390081 3 9078846203198891307
15477762 27 18337951323894309755
19766037 51 18260840322997127403
20211469 16 18412827953997662318
20281407 28 18270680866166116938
20645477 70 18191574466771692519
20653085 51 11530770262522248368
20671657 53 18334294275079191263
20708731 107 18191307276196526469
20711985 344 18119797019906113361
20871998 22 18411415133032274289
20871999 31 18187927227181473101
21061003 4 16916492645930387282
21665056 4 17186444538628486838
23382010 3 16515975855661605466
23530152 11 17328305156457539804
449060 23 18341614767752279690
7364860 26 18195806494862536888
94968 8 18335420218031120179

> <PUBCHEM_SHAPE_MULTIPOLES>
205.8
6.24
2.53
0.85
1.23
1
-0.03
-6.53
0.66
-0.62
0.36
-0.15
0.03
0.32

> <PUBCHEM_SHAPE_SELFOVERLAP>
361.015

> <PUBCHEM_SHAPE_VOLUME>
137

> <PUBCHEM_COORDINATE_TYPE>
2
5
10

$$$$
