97240
  -OEChem-03212100153D

 26 28  0     0  0  0  0  0  0999 V2000
    4.7112   -0.4440    0.0003 O   0  5  0  0  0  0  0  0  0  0  0  0
    3.3950   -2.2010    0.0002 O   0  0  0  0  0  0  0  0  0  0  0  0
    3.5667   -0.9582   -0.0001 N   0  3  0  0  0  0  0  0  0  0  0  0
   -0.0205    0.1508    0.0000 C   0  0  0  0  0  0  0  0  0  0  0  0
   -1.3631   -0.3692    0.0000 C   0  0  0  0  0  0  0  0  0  0  0  0
    0.1777    1.5564    0.0001 C   0  0  0  0  0  0  0  0  0  0  0  0
   -2.4563    0.5363    0.0000 C   0  0  0  0  0  0  0  0  0  0  0  0
    1.1449   -0.6558   -0.0002 C   0  0  0  0  0  0  0  0  0  0  0  0
   -0.9239    2.4159    0.0001 C   0  0  0  0  0  0  0  0  0  0  0  0
   -2.2210    1.9135    0.0002 C   0  0  0  0  0  0  0  0  0  0  0  0
    1.4755    2.0957    0.0000 C   0  0  0  0  0  0  0  0  0  0  0  0
   -1.6814   -1.7504    0.0000 C   0  0  0  0  0  0  0  0  0  0  0  0
    2.4300   -0.1066   -0.0004 C   0  0  0  0  0  0  0  0  0  0  0  0
   -3.7787    0.0607   -0.0001 C   0  0  0  0  0  0  0  0  0  0  0  0
    2.5952    1.2697   -0.0002 C   0  0  0  0  0  0  0  0  0  0  0  0
   -3.0011   -2.2100    0.0002 C   0  0  0  0  0  0  0  0  0  0  0  0
   -4.0502   -1.3039   -0.0001 C   0  0  0  0  0  0  0  0  0  0  0  0
    1.0371   -1.7374   -0.0003 H   0  0  0  0  0  0  0  0  0  0  0  0
   -0.7861    3.4956    0.0001 H   0  0  0  0  0  0  0  0  0  0  0  0
   -3.0500    2.6189    0.0002 H   0  0  0  0  0  0  0  0  0  0  0  0
    1.6260    3.1739    0.0001 H   0  0  0  0  0  0  0  0  0  0  0  0
   -0.9028   -2.5088    0.0000 H   0  0  0  0  0  0  0  0  0  0  0  0
   -4.6165    0.7559   -0.0001 H   0  0  0  0  0  0  0  0  0  0  0  0
    3.5762    1.7371   -0.0003 H   0  0  0  0  0  0  0  0  0  0  0  0
   -3.2032   -3.2771    0.0003 H   0  0  0  0  0  0  0  0  0  0  0  0
   -5.0772   -1.6559   -0.0002 H   0  0  0  0  0  0  0  0  0  0  0  0
  1  3  1  0  0  0  0
  2  3  2  0  0  0  0
  3 13  1  0  0  0  0
  4  5  1  0  0  0  0
  4  6  2  0  0  0  0
  4  8  1  0  0  0  0
  5  7  1  0  0  0  0
  5 12  2  0  0  0  0
  6  9  1  0  0  0  0
  6 11  1  0  0  0  0
  7 10  1  0  0  0  0
  7 14  2  0  0  0  0
  8 13  2  0  0  0  0
  8 18  1  0  0  0  0
  9 10  2  0  0  0  0
  9 19  1  0  0  0  0
 10 20  1  0  0  0  0
 11 15  2  0  0  0  0
 11 21  1  0  0  0  0
 12 16  1  0  0  0  0
 12 22  1  0  0  0  0
 13 15  1  0  0  0  0
 14 17  1  0  0  0  0
 14 23  1  0  0  0  0
 15 24  1  0  0  0  0
 16 17  2  0  0  0  0
 16 25  1  0  0  0  0
 17 26  1  0  0  0  0
M  CHG  2   1  -1   3   1
M  END
> <PUBCHEM_COMPOUND_CID>
97240

> <PUBCHEM_CONFORMER_RMSD>
0.6

> <PUBCHEM_CONFORMER_DIVERSEORDER>
1

> <PUBCHEM_MMFF94_PARTIAL_CHARGES>
22
1 -0.52
10 -0.15
11 -0.15
12 -0.15
13 0.13
14 -0.15
15 -0.15
16 -0.15
17 -0.15
18 0.15
19 0.15
2 -0.52
20 0.15
21 0.15
22 0.15
23 0.15
24 0.15
25 0.15
26 0.15
3 0.91
8 -0.15
9 -0.15

> <PUBCHEM_EFFECTIVE_ROTOR_COUNT>
1

> <PUBCHEM_PHARMACOPHORE_FEATURES>
6
1 1 acceptor
1 1 anion
1 2 acceptor
6 4 5 6 7 9 10 rings
6 4 6 8 11 13 15 rings
6 5 7 12 14 16 17 rings

> <PUBCHEM_HEAVY_ATOM_COUNT>
17

> <PUBCHEM_ATOM_DEF_STEREO_COUNT>
0

> <PUBCHEM_ATOM_UDEF_STEREO_COUNT>
0

> <PUBCHEM_BOND_DEF_STEREO_COUNT>
0

> <PUBCHEM_BOND_UDEF_STEREO_COUNT>
0

> <PUBCHEM_ISOTOPIC_ATOM_COUNT>
0

> <PUBCHEM_COMPONENT_COUNT>
1

> <PUBCHEM_CACTVS_TAUTO_COUNT>
1

> <PUBCHEM_CONFORMER_ID>
00017BD800000001

> <PUBCHEM_MMFF94_ENERGY>
59.9477

> <PUBCHEM_FEATURE_SELFOVERLAP>
30.576

> <PUBCHEM_SHAPE_FINGERPRINT>
10616163 171 18412267216121541446
10618630 7 18410012182086322653
10967382 1 18194402431435263239
1100329 8 17112691489271138211
11132069 177 18411411838982249433
11578080 2 17344886694311998233
11769659 78 18411698820070038613
11806522 49 18335701667628001308
12032990 46 18337112358099609147
12553582 1 18410851087920558950
13140716 1 18340212980974353313
13288520 33 18412547583286391838
13583140 156 14261353522798249671
138480 1 15240040534894427169
14115302 16 17894920658492089631
14790565 3 17691412910148436944
14965852 173 18411418388612034393
15099037 51 18409162178621297389
15196674 1 18410574032849843493
15375462 189 18114462279597860362
15442244 35 18411703179456666833
15536298 74 18342175626209576176
16752209 62 18263347123830429457
16945 1 18410575054772738437
17804303 29 18341898484643818565
1813 80 17531246175272094628
18186145 218 17531517789193706315
19141452 34 18272091617300309055
19591789 44 16971969389541025513
200 152 17988634221098094119
20510252 161 18200311000754296496
20645477 70 18264199386997002319
21267235 1 18410583902368457947
21501502 16 18411427232039776893
21501925 9 18411693322691234936
21634736 98 18335707186492165308
221490 88 18191030203471617051
23184049 29 18411420609173430044
2334 1 18266741479212409717
23366157 5 18041558173803611044
23402539 116 18343293752526033831
23463225 33 18411703231038323021
23557571 272 18201446822752627684
23559900 14 18411974793426128584
2748010 2 18338791342356937549
3091708 16 9064031374615179785
335352 9 18338517435371091597
34934 24 18196927988417491053
5104073 3 18411701023467487625
54173680 148 18338798901219777600
7364860 26 18269272542200656544
8809292 202 18334579070234660795
9709674 26 18263926724902851435

> <PUBCHEM_SHAPE_MULTIPOLES>
333.13
7.13
2.61
0.6
2.6
0.32
0
-3.82
0
-0.2
0
-0.06
0.02
0

> <PUBCHEM_SHAPE_SELFOVERLAP>
751.506

> <PUBCHEM_SHAPE_VOLUME>
176.2

> <PUBCHEM_COORDINATE_TYPE>
2
5
10

$$$$
