30086
  -OEChem-03212101363D

 32 35  0     0  0  0  0  0  0999 V2000
   -3.1385   -2.3435    0.0000 O   0  5  0  0  0  0  0  0  0  0  0  0
   -1.1388   -3.2493   -0.0003 O   0  0  0  0  0  0  0  0  0  0  0  0
   -1.8941   -2.2566    0.0000 N   0  3  0  0  0  0  0  0  0  0  0  0
    0.7058    0.4592    0.0001 C   0  0  0  0  0  0  0  0  0  0  0  0
    0.0981   -0.8204    0.0001 C   0  0  0  0  0  0  0  0  0  0  0  0
    2.1437    0.5541    0.0001 C   0  0  0  0  0  0  0  0  0  0  0  0
   -1.3019   -0.9490    0.0002 C   0  0  0  0  0  0  0  0  0  0  0  0
   -2.1443    0.1707    0.0000 C   0  0  0  0  0  0  0  0  0  0  0  0
   -1.5693    1.4543    0.0001 C   0  0  0  0  0  0  0  0  0  0  0  0
   -0.1666    1.5776    0.0001 C   0  0  0  0  0  0  0  0  0  0  0  0
    2.9166   -0.6364    0.0000 C   0  0  0  0  0  0  0  0  0  0  0  0
    0.8928   -1.9699    0.0001 C   0  0  0  0  0  0  0  0  0  0  0  0
    2.2806   -1.8797    0.0001 C   0  0  0  0  0  0  0  0  0  0  0  0
    2.8616    1.7766    0.0000 C   0  0  0  0  0  0  0  0  0  0  0  0
   -3.5438    0.0405   -0.0001 C   0  0  0  0  0  0  0  0  0  0  0  0
   -2.4091    2.5815    0.0000 C   0  0  0  0  0  0  0  0  0  0  0  0
    4.3209   -0.5787   -0.0001 C   0  0  0  0  0  0  0  0  0  0  0  0
    4.2586    1.8202   -0.0001 C   0  0  0  0  0  0  0  0  0  0  0  0
   -4.3639    1.1685   -0.0001 C   0  0  0  0  0  0  0  0  0  0  0  0
   -3.7968    2.4386   -0.0001 C   0  0  0  0  0  0  0  0  0  0  0  0
    4.9884    0.6419   -0.0001 C   0  0  0  0  0  0  0  0  0  0  0  0
    0.2450    2.5855    0.0002 H   0  0  0  0  0  0  0  0  0  0  0  0
    0.6871   -3.0226    0.0005 H   0  0  0  0  0  0  0  0  0  0  0  0
    2.8687   -2.7967    0.0001 H   0  0  0  0  0  0  0  0  0  0  0  0
    2.3442    2.7325    0.0000 H   0  0  0  0  0  0  0  0  0  0  0  0
   -4.2012   -0.8088   -0.0001 H   0  0  0  0  0  0  0  0  0  0  0  0
   -1.9869    3.5844   -0.0001 H   0  0  0  0  0  0  0  0  0  0  0  0
    4.9122   -1.4927   -0.0001 H   0  0  0  0  0  0  0  0  0  0  0  0
    4.7705    2.7782   -0.0002 H   0  0  0  0  0  0  0  0  0  0  0  0
   -5.4454    1.0622   -0.0002 H   0  0  0  0  0  0  0  0  0  0  0  0
   -4.4331    3.3187   -0.0002 H   0  0  0  0  0  0  0  0  0  0  0  0
    6.0737    0.6704   -0.0002 H   0  0  0  0  0  0  0  0  0  0  0  0
  1  3  1  0  0  0  0
  2  3  2  0  0  0  0
  3  7  1  0  0  0  0
  4  5  1  0  0  0  0
  4  6  1  0  0  0  0
  4 10  2  0  0  0  0
  5  7  2  0  0  0  0
  5 12  1  0  0  0  0
  6 11  1  0  0  0  0
  6 14  2  0  0  0  0
  7  8  1  0  0  0  0
  8  9  1  0  0  0  0
  8 15  2  0  0  0  0
  9 10  1  0  0  0  0
  9 16  2  0  0  0  0
 10 22  1  0  0  0  0
 11 13  1  0  0  0  0
 11 17  2  0  0  0  0
 12 13  2  0  0  0  0
 12 23  1  0  0  0  0
 13 24  1  0  0  0  0
 14 18  1  0  0  0  0
 14 25  1  0  0  0  0
 15 19  1  0  0  0  0
 15 26  1  0  0  0  0
 16 20  1  0  0  0  0
 16 27  1  0  0  0  0
 17 21  1  0  0  0  0
 17 28  1  0  0  0  0
 18 21  2  0  0  0  0
 18 29  1  0  0  0  0
 19 20  2  0  0  0  0
 19 30  1  0  0  0  0
 20 31  1  0  0  0  0
 21 32  1  0  0  0  0
M  CHG  2   1  -1   3   1
M  END
> <PUBCHEM_COMPOUND_CID>
30086

> <PUBCHEM_CONFORMER_RMSD>
0.6

> <PUBCHEM_CONFORMER_DIVERSEORDER>
1

> <PUBCHEM_MMFF94_PARTIAL_CHARGES>
26
1 -0.52
10 -0.15
12 -0.15
13 -0.15
14 -0.15
15 -0.15
16 -0.15
17 -0.15
18 -0.15
19 -0.15
2 -0.52
20 -0.15
21 -0.15
22 0.15
23 0.15
24 0.15
25 0.15
26 0.15
27 0.15
28 0.15
29 0.15
3 0.91
30 0.15
31 0.15
32 0.15
7 0.13

> <PUBCHEM_EFFECTIVE_ROTOR_COUNT>
1

> <PUBCHEM_PHARMACOPHORE_FEATURES>
7
1 1 acceptor
1 1 anion
1 2 acceptor
6 4 5 6 11 12 13 rings
6 4 5 7 8 9 10 rings
6 6 11 14 17 18 21 rings
6 8 9 15 16 19 20 rings

> <PUBCHEM_HEAVY_ATOM_COUNT>
21

> <PUBCHEM_ATOM_DEF_STEREO_COUNT>
0

> <PUBCHEM_ATOM_UDEF_STEREO_COUNT>
0

> <PUBCHEM_BOND_DEF_STEREO_COUNT>
0

> <PUBCHEM_BOND_UDEF_STEREO_COUNT>
0

> <PUBCHEM_ISOTOPIC_ATOM_COUNT>
0

> <PUBCHEM_COMPONENT_COUNT>
1

> <PUBCHEM_CACTVS_TAUTO_COUNT>
1

> <PUBCHEM_CONFORMER_ID>
0000758600000001

> <PUBCHEM_MMFF94_ENERGY>
122.7899

> <PUBCHEM_FEATURE_SELFOVERLAP>
35.675

> <PUBCHEM_SHAPE_FINGERPRINT>
10319926 262 18269816741075385504
10411042 1 17545884192817221754
10493431 412 18411987923267714089
10608611 8 18411981360298930432
10616163 171 18411139177236309958
10646746 165 18411700998035234628
10948715 1 18339360768878207655
10967382 1 18338798896898235140
1100329 8 16900184465939393392
11370993 70 18338794520326787932
12173636 292 18410853261226271469
12390115 104 18128273215406568705
12403814 3 17676202464078903381
12500047 106 18411695482854251280
12788726 201 18118113899490232675
13140716 1 18408880716070760682
133893 2 16054936190333968966
138480 1 17401768519167039563
14178342 30 18336251449216916216
14787075 74 18272645728221571685
14790565 3 18268718199404355769
15042514 8 18264776630707138275
15196674 1 18410573968029604228
15442244 35 18337387124464289890
15536298 74 18269837532210419124
16087824 20 18411698829936963687
16945 1 18410575063204157638
17492 89 18409448094241751578
19591789 44 18265615381520806655
20510252 161 18342178915964445747
20739085 24 17903947472857781265
21267235 1 18410301314873820354
21501502 16 18409724067280128386
22182313 1 18269577003689445679
23227448 37 18411981368630311588
2334 1 18194683906390959330
23402539 116 18341886394500823725
23557571 272 18271256031127802054
23558518 356 18188493609082905994
23559900 14 18199749155325031078
238 59 17178519336293870093
2748010 2 18264780856864851453
335352 9 18338516318774501214
34934 24 18408317774416928474
350125 39 18338803423936423905
3545911 37 18411984646080943068
4214541 1 18410575084885027748
474 4 18196372511818201089
495365 180 17418078932889031448
5104073 3 18409727383226847448
59755656 215 18341336579227124798
633830 44 17985265162620112133
69090 78 18410009905722039681
7097593 13 17898270729031303450
7364860 26 18197218049266006526
9709674 26 18342461417538826734

> <PUBCHEM_SHAPE_MULTIPOLES>
415.45
8.57
3.11
0.6
3.22
1.22
0
-3.91
0
-1.66
0
0.03
-0.04
0

> <PUBCHEM_SHAPE_SELFOVERLAP>
958.943

> <PUBCHEM_SHAPE_VOLUME>
213.7

> <PUBCHEM_COORDINATE_TYPE>
2
5
10

$$$$
