12501282
  -OEChem-03212118413D

 24 24  0     1  0  0  0  0  0999 V2000
   -0.7309   -0.2093   -0.3340 C   0  0  2  0  0  0  0  0  0  0  0  0
    1.6451   -0.1117   -0.3710 C   0  0  1  0  0  0  0  0  0  0  0  0
    0.4989   -1.0398    0.0224 C   0  0  0  0  0  0  0  0  0  0  0  0
   -0.3596    1.2016    0.1296 C   0  0  0  0  0  0  0  0  0  0  0  0
    1.1700    1.2720    0.0828 C   0  0  0  0  0  0  0  0  0  0  0  0
   -2.0093   -0.7318    0.2986 C   0  0  0  0  0  0  0  0  0  0  0  0
    2.9775   -0.5176    0.2354 C   0  0  0  0  0  0  0  0  0  0  0  0
   -3.1917    0.1366   -0.0638 C   0  0  0  0  0  0  0  0  0  0  0  0
   -0.8430   -0.2023   -1.4273 H   0  0  0  0  0  0  0  0  0  0  0  0
    1.7418   -0.1097   -1.4650 H   0  0  0  0  0  0  0  0  0  0  0  0
    0.5296   -1.9860   -0.5274 H   0  0  0  0  0  0  0  0  0  0  0  0
    0.5252   -1.2661    1.0956 H   0  0  0  0  0  0  0  0  0  0  0  0
   -0.6980    1.3924    1.1551 H   0  0  0  0  0  0  0  0  0  0  0  0
   -0.8114    1.9652   -0.5126 H   0  0  0  0  0  0  0  0  0  0  0  0
    1.5129    2.0497   -0.6082 H   0  0  0  0  0  0  0  0  0  0  0  0
    1.5568    1.5269    1.0766 H   0  0  0  0  0  0  0  0  0  0  0  0
   -1.9120   -0.7769    1.3899 H   0  0  0  0  0  0  0  0  0  0  0  0
   -2.1944   -1.7562   -0.0458 H   0  0  0  0  0  0  0  0  0  0  0  0
    3.7642    0.1862   -0.0553 H   0  0  0  0  0  0  0  0  0  0  0  0
    2.9304   -0.5388    1.3294 H   0  0  0  0  0  0  0  0  0  0  0  0
    3.2699   -1.5151   -0.1085 H   0  0  0  0  0  0  0  0  0  0  0  0
   -3.0994    1.1459    0.3488 H   0  0  0  0  0  0  0  0  0  0  0  0
   -3.3076    0.2177   -1.1495 H   0  0  0  0  0  0  0  0  0  0  0  0
   -4.1130   -0.2978    0.3382 H   0  0  0  0  0  0  0  0  0  0  0  0
  1  3  1  0  0  0  0
  1  4  1  0  0  0  0
  1  6  1  0  0  0  0
  1  9  1  0  0  0  0
  2  3  1  0  0  0  0
  2  5  1  0  0  0  0
  2  7  1  0  0  0  0
  2 10  1  0  0  0  0
  3 11  1  0  0  0  0
  3 12  1  0  0  0  0
  4  5  1  0  0  0  0
  4 13  1  0  0  0  0
  4 14  1  0  0  0  0
  5 15  1  0  0  0  0
  5 16  1  0  0  0  0
  6  8  1  0  0  0  0
  6 17  1  0  0  0  0
  6 18  1  0  0  0  0
  7 19  1  0  0  0  0
  7 20  1  0  0  0  0
  7 21  1  0  0  0  0
  8 22  1  0  0  0  0
  8 23  1  0  0  0  0
  8 24  1  0  0  0  0
M  END
> <PUBCHEM_COMPOUND_CID>
12501282

> <PUBCHEM_CONFORMER_RMSD>
0.4

> <PUBCHEM_CONFORMER_DIVERSEORDER>
1
3
2

> <PUBCHEM_MMFF94_PARTIAL_CHARGES>
0

> <PUBCHEM_EFFECTIVE_ROTOR_COUNT>
2

> <PUBCHEM_PHARMACOPHORE_FEATURES>
2
1 8 hydrophobe
5 1 2 3 4 5 rings

> <PUBCHEM_HEAVY_ATOM_COUNT>
8

> <PUBCHEM_ATOM_DEF_STEREO_COUNT>
2

> <PUBCHEM_ATOM_UDEF_STEREO_COUNT>
0

> <PUBCHEM_BOND_DEF_STEREO_COUNT>
0

> <PUBCHEM_BOND_UDEF_STEREO_COUNT>
0

> <PUBCHEM_ISOTOPIC_ATOM_COUNT>
0

> <PUBCHEM_COMPONENT_COUNT>
1

> <PUBCHEM_CACTVS_TAUTO_COUNT>
1

> <PUBCHEM_CONFORMER_ID>
00BEC12200000001

> <PUBCHEM_MMFF94_ENERGY>
10.1996

> <PUBCHEM_FEATURE_SELFOVERLAP>
10.148

> <PUBCHEM_SHAPE_FINGERPRINT>
10219947 1 18130788953623390110
10857977 72 18341040874295820522
11062470 55 18410854352026599433
12932764 1 13623805081244813191
14325111 11 18337954596759518621
21040471 1 18051132784981140284
23402655 69 18268413648132372837
23552423 10 18188492513481058606
29004967 10 18411986866235942450
5084963 1 17749389282111842535

> <PUBCHEM_SHAPE_MULTIPOLES>
164.64
4.13
1.24
0.67
1.06
0.27
0.01
-0.62
-0.2
-0.2
-0.07
-0.01
-0.01
0.02

> <PUBCHEM_SHAPE_SELFOVERLAP>
314.069

> <PUBCHEM_SHAPE_VOLUME>
99.6

> <PUBCHEM_COORDINATE_TYPE>
2
5
10

$$$$
