12501283
  -OEChem-03212118423D

 24 24  0     1  0  0  0  0  0999 V2000
   -0.7131   -0.2076   -0.3400 C   0  0  2  0  0  0  0  0  0  0  0  0
    1.6338   -0.1036    0.3773 C   0  0  2  0  0  0  0  0  0  0  0  0
    0.5044   -1.0783    0.0083 C   0  0  0  0  0  0  0  0  0  0  0  0
   -0.3544    1.1920    0.1560 C   0  0  0  0  0  0  0  0  0  0  0  0
    1.1439    1.2657   -0.0899 C   0  0  0  0  0  0  0  0  0  0  0  0
   -2.0136   -0.7304    0.2471 C   0  0  0  0  0  0  0  0  0  0  0  0
    2.9779   -0.4880   -0.2189 C   0  0  0  0  0  0  0  0  0  0  0  0
   -3.1789    0.1503   -0.1398 C   0  0  0  0  0  0  0  0  0  0  0  0
   -0.8013   -0.1759   -1.4351 H   0  0  0  0  0  0  0  0  0  0  0  0
    1.7304   -0.0860    1.4712 H   0  0  0  0  0  0  0  0  0  0  0  0
    0.7679   -1.7095   -0.8484 H   0  0  0  0  0  0  0  0  0  0  0  0
    0.3036   -1.7501    0.8510 H   0  0  0  0  0  0  0  0  0  0  0  0
   -0.5670    1.3031    1.2262 H   0  0  0  0  0  0  0  0  0  0  0  0
   -0.8889    1.9788   -0.3849 H   0  0  0  0  0  0  0  0  0  0  0  0
    1.3459    1.4164   -1.1574 H   0  0  0  0  0  0  0  0  0  0  0  0
    1.6126    2.0839    0.4652 H   0  0  0  0  0  0  0  0  0  0  0  0
   -1.9491   -0.7907    1.3401 H   0  0  0  0  0  0  0  0  0  0  0  0
   -2.1951   -1.7484   -0.1178 H   0  0  0  0  0  0  0  0  0  0  0  0
    2.9352   -0.5221   -1.3127 H   0  0  0  0  0  0  0  0  0  0  0  0
    3.7482    0.2358    0.0665 H   0  0  0  0  0  0  0  0  0  0  0  0
    3.2904   -1.4748    0.1380 H   0  0  0  0  0  0  0  0  0  0  0  0
   -3.0993    1.1490    0.3003 H   0  0  0  0  0  0  0  0  0  0  0  0
   -3.2548    0.2567   -1.2268 H   0  0  0  0  0  0  0  0  0  0  0  0
   -4.1156   -0.2895    0.2182 H   0  0  0  0  0  0  0  0  0  0  0  0
  1  3  1  0  0  0  0
  1  4  1  0  0  0  0
  1  6  1  0  0  0  0
  1  9  1  0  0  0  0
  2  3  1  0  0  0  0
  2  5  1  0  0  0  0
  2  7  1  0  0  0  0
  2 10  1  0  0  0  0
  3 11  1  0  0  0  0
  3 12  1  0  0  0  0
  4  5  1  0  0  0  0
  4 13  1  0  0  0  0
  4 14  1  0  0  0  0
  5 15  1  0  0  0  0
  5 16  1  0  0  0  0
  6  8  1  0  0  0  0
  6 17  1  0  0  0  0
  6 18  1  0  0  0  0
  7 19  1  0  0  0  0
  7 20  1  0  0  0  0
  7 21  1  0  0  0  0
  8 22  1  0  0  0  0
  8 23  1  0  0  0  0
  8 24  1  0  0  0  0
M  END
> <PUBCHEM_COMPOUND_CID>
12501283

> <PUBCHEM_CONFORMER_RMSD>
0.4

> <PUBCHEM_CONFORMER_DIVERSEORDER>
1
10
4
9
5
8
6
3
2
7

> <PUBCHEM_MMFF94_PARTIAL_CHARGES>
0

> <PUBCHEM_EFFECTIVE_ROTOR_COUNT>
2

> <PUBCHEM_PHARMACOPHORE_FEATURES>
2
1 8 hydrophobe
5 1 2 3 4 5 rings

> <PUBCHEM_HEAVY_ATOM_COUNT>
8

> <PUBCHEM_ATOM_DEF_STEREO_COUNT>
2

> <PUBCHEM_ATOM_UDEF_STEREO_COUNT>
0

> <PUBCHEM_BOND_DEF_STEREO_COUNT>
0

> <PUBCHEM_BOND_UDEF_STEREO_COUNT>
0

> <PUBCHEM_ISOTOPIC_ATOM_COUNT>
0

> <PUBCHEM_COMPONENT_COUNT>
1

> <PUBCHEM_CACTVS_TAUTO_COUNT>
1

> <PUBCHEM_CONFORMER_ID>
00BEC12300000001

> <PUBCHEM_MMFF94_ENERGY>
10.6042

> <PUBCHEM_FEATURE_SELFOVERLAP>
10.148

> <PUBCHEM_SHAPE_FINGERPRINT>
10219947 1 18202003226485007639
10857977 72 18411127061054239018
12932764 1 17095793399943002339
14325111 11 18339079397144196941
15310529 11 16370716007182695122
16714656 1 18412827971356808158
21040471 1 18122623031024410528
21293036 1 18334020505643055502
23402655 69 18195790900812277261
23552423 10 18189053251542166190
29004967 10 18408886247698338034
5084963 1 18202565089853784219

> <PUBCHEM_SHAPE_MULTIPOLES>
164.64
4.1
1.25
0.67
1.04
0.24
0
-0.58
0.2
-0.18
-0.02
-0.01
-0.01
0.05

> <PUBCHEM_SHAPE_SELFOVERLAP>
314.032

> <PUBCHEM_SHAPE_VOLUME>
99.6

> <PUBCHEM_COORDINATE_TYPE>
2
5
10

$$$$
