6430745
  -OEChem-03212100233D

 35 36  0     1  0  0  0  0  0999 V2000
    0.4290    1.4559   -1.7312 O   0  0  0  0  0  0  0  0  0  0  0  0
    2.3905    0.0964   -0.0464 N   0  0  0  0  0  0  0  0  0  0  0  0
    1.9331   -1.2689   -0.3035 C   0  0  0  0  0  0  0  0  0  0  0  0
    3.4876   -0.0446    0.9105 C   0  0  0  0  0  0  0  0  0  0  0  0
    3.2351   -2.0465   -0.4259 C   0  0  0  0  0  0  0  0  0  0  0  0
    4.2558   -1.2439    0.3748 C   0  0  0  0  0  0  0  0  0  0  0  0
    1.3257    0.9545    0.4514 C   0  0  1  0  0  0  0  0  0  0  0  0
    1.8696    2.3568    0.6913 C   0  0  0  0  0  0  0  0  0  0  0  0
    0.2317    0.9873   -0.6104 C   0  0  0  0  0  0  0  0  0  0  0  0
   -1.1246    0.4547   -0.2863 C   0  0  0  0  0  0  0  0  0  0  0  0
   -1.5687    0.5294    1.0138 C   0  0  0  0  0  0  0  0  0  0  0  0
   -1.8781   -0.0902   -1.3008 C   0  0  0  0  0  0  0  0  0  0  0  0
   -2.8362    0.0320    1.3164 C   0  0  0  0  0  0  0  0  0  0  0  0
   -3.1457   -0.5876   -0.9983 C   0  0  0  0  0  0  0  0  0  0  0  0
   -3.6249   -0.5265    0.3104 C   0  0  0  0  0  0  0  0  0  0  0  0
   -4.9798   -1.0591    0.6342 C   0  0  0  0  0  0  0  0  0  0  0  0
    1.3459   -1.3607   -1.2227 H   0  0  0  0  0  0  0  0  0  0  0  0
    1.3441   -1.6682    0.5326 H   0  0  0  0  0  0  0  0  0  0  0  0
    3.1246   -0.2622    1.9233 H   0  0  0  0  0  0  0  0  0  0  0  0
    4.1367    0.8356    0.9500 H   0  0  0  0  0  0  0  0  0  0  0  0
    3.5539   -2.1108   -1.4730 H   0  0  0  0  0  0  0  0  0  0  0  0
    3.1313   -3.0668   -0.0432 H   0  0  0  0  0  0  0  0  0  0  0  0
    4.6909   -1.8365    1.1859 H   0  0  0  0  0  0  0  0  0  0  0  0
    5.0724   -0.9227   -0.2825 H   0  0  0  0  0  0  0  0  0  0  0  0
    0.9555    0.5581    1.4001 H   0  0  0  0  0  0  0  0  0  0  0  0
    1.0475    3.0524    0.8970 H   0  0  0  0  0  0  0  0  0  0  0  0
    2.5459    2.3966    1.5514 H   0  0  0  0  0  0  0  0  0  0  0  0
    2.4027    2.7450   -0.1848 H   0  0  0  0  0  0  0  0  0  0  0  0
   -1.0045    0.9952    1.8136 H   0  0  0  0  0  0  0  0  0  0  0  0
   -1.5147   -0.1499   -2.3221 H   0  0  0  0  0  0  0  0  0  0  0  0
   -3.2019    0.0921    2.3382 H   0  0  0  0  0  0  0  0  0  0  0  0
   -3.7492   -1.0234   -1.7901 H   0  0  0  0  0  0  0  0  0  0  0  0
   -4.9114   -2.1151    0.9137 H   0  0  0  0  0  0  0  0  0  0  0  0
   -5.4343   -0.5052    1.4627 H   0  0  0  0  0  0  0  0  0  0  0  0
   -5.6563   -0.9659   -0.2222 H   0  0  0  0  0  0  0  0  0  0  0  0
  1  9  2  0  0  0  0
  2  3  1  0  0  0  0
  2  4  1  0  0  0  0
  2  7  1  0  0  0  0
  3  5  1  0  0  0  0
  3 17  1  0  0  0  0
  3 18  1  0  0  0  0
  4  6  1  0  0  0  0
  4 19  1  0  0  0  0
  4 20  1  0  0  0  0
  5  6  1  0  0  0  0
  5 21  1  0  0  0  0
  5 22  1  0  0  0  0
  6 23  1  0  0  0  0
  6 24  1  0  0  0  0
  7  8  1  0  0  0  0
  7  9  1  0  0  0  0
  7 25  1  0  0  0  0
  8 26  1  0  0  0  0
  8 27  1  0  0  0  0
  8 28  1  0  0  0  0
  9 10  1  0  0  0  0
 10 11  2  0  0  0  0
 10 12  1  0  0  0  0
 11 13  1  0  0  0  0
 11 29  1  0  0  0  0
 12 14  2  0  0  0  0
 12 30  1  0  0  0  0
 13 15  2  0  0  0  0
 13 31  1  0  0  0  0
 14 15  1  0  0  0  0
 14 32  1  0  0  0  0
 15 16  1  0  0  0  0
 16 33  1  0  0  0  0
 16 34  1  0  0  0  0
 16 35  1  0  0  0  0
M  END
> <PUBCHEM_COMPOUND_CID>
6430745

> <PUBCHEM_CONFORMER_RMSD>
0.6

> <PUBCHEM_CONFORMER_DIVERSEORDER>
1
28
9
27
20
17
21
12
5
25
18
23
7
29
16
24
3
11
26
22
19
10
2
14
15
6
8
13
4

> <PUBCHEM_MMFF94_PARTIAL_CHARGES>
17
1 -0.57
10 0.09
11 -0.15
12 -0.15
13 -0.15
14 -0.15
15 -0.14
16 0.14
2 -0.81
29 0.15
3 0.27
30 0.15
31 0.15
32 0.15
4 0.27
7 0.33
9 0.42

> <PUBCHEM_EFFECTIVE_ROTOR_COUNT>
4

> <PUBCHEM_PHARMACOPHORE_FEATURES>
4
1 1 acceptor
1 2 cation
5 2 3 4 5 6 rings
6 10 11 12 13 14 15 rings

> <PUBCHEM_HEAVY_ATOM_COUNT>
16

> <PUBCHEM_ATOM_DEF_STEREO_COUNT>
0

> <PUBCHEM_ATOM_UDEF_STEREO_COUNT>
1

> <PUBCHEM_BOND_DEF_STEREO_COUNT>
0

> <PUBCHEM_BOND_UDEF_STEREO_COUNT>
0

> <PUBCHEM_ISOTOPIC_ATOM_COUNT>
0

> <PUBCHEM_COMPONENT_COUNT>
1

> <PUBCHEM_CACTVS_TAUTO_COUNT>
2

> <PUBCHEM_CONFORMER_ID>
0062201900000001

> <PUBCHEM_MMFF94_ENERGY>
38.0602

> <PUBCHEM_FEATURE_SELFOVERLAP>
20.297

> <PUBCHEM_SHAPE_FINGERPRINT>
10465860 71 16226051080398857255
10618630 7 18334859359932136470
10751810 167 15213017146302168105
11543360 7 13695880224234360490
11578080 2 17128978834128762841
12251169 10 17561363989116151849
12363563 72 17894915096488264130
12553582 1 18272647931281156606
12707595 3 17095530616426619609
12892183 10 17131550535943524314
13296908 3 17821721749798819869
13464513 79 18259987093510632794
13533116 47 18341336690733036387
13675066 3 18409448116058504945
14115302 16 13912595100024941401
14251764 30 17773053968415248126
14252887 29 18261391173964093280
14386348 63 17894630361473217915
15375462 189 18202560666327749570
15375462 478 17346597452204203121
15501101 241 18410007754244221820
15527383 91 18411140229413626721
15775835 57 9511455615393254298
16752209 62 15791717612581843961
16945 1 18342451569321085660
1813 80 18267882617979782244
19862831 5 13912326771900574762
200 152 18059842966262974605
20281475 54 18261116210316039138
20361792 2 18113620066628451268
20374829 77 17749383737351456363
20559304 39 17846787329309812000
20645477 70 18337091458646387367
20671657 53 17385724690233464516
20711985 344 17314778603698891820
20871998 22 18200036131880112678
20871999 31 16298390132328611015
21069387 34 18337386145317209111
22094290 60 15791731884504987079
22445834 79 18060137634936236623
2255824 54 18199750413465521160
231179 274 10663822966234777474
23382010 3 13046242592494252180
23402539 116 17023180466881686558
23403322 49 17676764258591371322
23557571 272 16370717166887357708
26918003 58 18342173375857735827
31174 14 18411414050869535040
3286 77 18409167718411710393
4028521 119 8502653705594050443
4072396 5 17203620268260474987
42 15 18343306972440742915
7097593 13 17632296748346554510
7364860 26 17823991236182803165
81228 2 17678448663134422156
83771 10 18334296444116797022
90316 7 17275109409927666057
94968 8 18259988167199631314

> <PUBCHEM_SHAPE_MULTIPOLES>
318.42
8.19
1.81
1.28
2.66
0.3
0.25
-4.52
-2.32
-1.83
0.01
0.61
0.22
0.14

> <PUBCHEM_SHAPE_SELFOVERLAP>
666.243

> <PUBCHEM_SHAPE_VOLUME>
183.4

> <PUBCHEM_COORDINATE_TYPE>
2
5
10

$$$$
