36187
  -OEChem-03192122593D

 22 23  0     0  0  0  0  0  0999 V2000
   -3.6472    2.3203   -0.5844 Cl  0  0  0  0  0  0  0  0  0  0  0  0
    3.6473    2.3202    0.5843 Cl  0  0  0  0  0  0  0  0  0  0  0  0
   -5.2369   -0.3878    0.1962 Cl  0  0  0  0  0  0  0  0  0  0  0  0
    5.2369   -0.3878   -0.1961 Cl  0  0  0  0  0  0  0  0  0  0  0  0
   -0.7230   -0.3212    0.0246 C   0  0  0  0  0  0  0  0  0  0  0  0
    0.7230   -0.3212   -0.0246 C   0  0  0  0  0  0  0  0  0  0  0  0
   -1.4315    0.8452   -0.2639 C   0  0  0  0  0  0  0  0  0  0  0  0
    1.4314    0.8452    0.2638 C   0  0  0  0  0  0  0  0  0  0  0  0
   -1.4087   -1.4885    0.3608 C   0  0  0  0  0  0  0  0  0  0  0  0
    1.4087   -1.4885   -0.3609 C   0  0  0  0  0  0  0  0  0  0  0  0
   -2.8255    0.8443   -0.2162 C   0  0  0  0  0  0  0  0  0  0  0  0
    2.8254    0.8444    0.2162 C   0  0  0  0  0  0  0  0  0  0  0  0
   -2.8027   -1.4894    0.4086 C   0  0  0  0  0  0  0  0  0  0  0  0
    2.8027   -1.4894   -0.4086 C   0  0  0  0  0  0  0  0  0  0  0  0
   -3.5110   -0.3229    0.1200 C   0  0  0  0  0  0  0  0  0  0  0  0
    3.5111   -0.3229   -0.1200 C   0  0  0  0  0  0  0  0  0  0  0  0
   -0.9256    1.7608   -0.5610 H   0  0  0  0  0  0  0  0  0  0  0  0
    0.9256    1.7608    0.5609 H   0  0  0  0  0  0  0  0  0  0  0  0
   -0.8995   -2.4117    0.6235 H   0  0  0  0  0  0  0  0  0  0  0  0
    0.8995   -2.4117   -0.6236 H   0  0  0  0  0  0  0  0  0  0  0  0
   -3.3211   -2.4059    0.6791 H   0  0  0  0  0  0  0  0  0  0  0  0
    3.3211   -2.4059   -0.6791 H   0  0  0  0  0  0  0  0  0  0  0  0
  1 11  1  0  0  0  0
  2 12  1  0  0  0  0
  3 15  1  0  0  0  0
  4 16  1  0  0  0  0
  5  6  1  0  0  0  0
  5  7  2  0  0  0  0
  5  9  1  0  0  0  0
  6  8  2  0  0  0  0
  6 10  1  0  0  0  0
  7 11  1  0  0  0  0
  7 17  1  0  0  0  0
  8 12  1  0  0  0  0
  8 18  1  0  0  0  0
  9 13  2  0  0  0  0
  9 19  1  0  0  0  0
 10 14  2  0  0  0  0
 10 20  1  0  0  0  0
 11 15  2  0  0  0  0
 12 16  2  0  0  0  0
 13 15  1  0  0  0  0
 13 21  1  0  0  0  0
 14 16  1  0  0  0  0
 14 22  1  0  0  0  0
M  END
> <PUBCHEM_COMPOUND_CID>
36187

> <PUBCHEM_CONFORMER_RMSD>
0.6

> <PUBCHEM_CONFORMER_DIVERSEORDER>
2
3
4
1

> <PUBCHEM_MMFF94_PARTIAL_CHARGES>
20
1 -0.18
10 -0.15
11 0.18
12 0.18
13 -0.15
14 -0.15
15 0.18
16 0.18
17 0.15
18 0.15
19 0.15
2 -0.18
20 0.15
21 0.15
22 0.15
3 -0.18
4 -0.18
7 -0.15
8 -0.15
9 -0.15

> <PUBCHEM_EFFECTIVE_ROTOR_COUNT>
1

> <PUBCHEM_PHARMACOPHORE_FEATURES>
2
6 5 7 9 11 13 15 rings
6 6 8 10 12 14 16 rings

> <PUBCHEM_HEAVY_ATOM_COUNT>
16

> <PUBCHEM_ATOM_DEF_STEREO_COUNT>
0

> <PUBCHEM_ATOM_UDEF_STEREO_COUNT>
0

> <PUBCHEM_BOND_DEF_STEREO_COUNT>
0

> <PUBCHEM_BOND_UDEF_STEREO_COUNT>
0

> <PUBCHEM_ISOTOPIC_ATOM_COUNT>
0

> <PUBCHEM_COMPONENT_COUNT>
1

> <PUBCHEM_CACTVS_TAUTO_COUNT>
1

> <PUBCHEM_CONFORMER_ID>
00008D5B00000002

> <PUBCHEM_MMFF94_ENERGY>
46.5185

> <PUBCHEM_FEATURE_SELFOVERLAP>
10.149

> <PUBCHEM_SHAPE_FINGERPRINT>
10608611 8 18410853265400185349
10646746 165 18334856108573341068
11132069 177 18260826059326165889
11471102 20 18272089418076307594
11615757 297 17703514362724273130
12236239 1 15791733009475292495
12403259 415 18410570686617055012
12500047 106 18334573508083103431
12507560 40 18411134762173537852
13081056 2 18411699906607230145
13533116 47 17676477312058499619
14415576 193 18411140259873984772
14866123 147 16685422340175232538
15042514 8 18189905395262486459
15196674 1 18410573985151808417
15219456 202 18411981368635495016
15536298 74 18413109493525450468
17802600 8 18410854364911572773
17834072 33 18059856216121278511
18186145 218 18272657800736096969
200 152 17775565334175954867
20279233 1 18410863161004913282
20510252 161 18411419488841399057
20645477 56 18334013848628668165
20645477 70 17917717876958890662
21065198 57 18409729560474676218
21267235 1 18410865355733136579
21709351 56 18342451543662039132
221490 88 18339650035363709562
22854114 59 18343021128959994345
23402539 116 18409161130617849631
23402655 69 18200307719478260549
23557571 272 18334863796369693981
23559900 14 18410571825046814408
3545911 37 18411140233639762294
4028521 119 18260540100851796605
4214541 1 18410012109087748261
474 4 16082232859737489668
495365 180 17916565588567135880
5104073 3 18336265652204305233
5281201 14 18343026553540697084
5374978 207 18334853943746151019
58051976 100 18273215334789019143
69090 78 18341893004751124951
7364860 26 18343303682458805760
77779 3 18410576184174719694
8809292 202 18334300906609371570
9709674 26 18412268315511940879

> <PUBCHEM_SHAPE_MULTIPOLES>
336.75
10.06
2.11
0.73
0
0.92
0
1.24
0
0
0
0
0.07
1.13

> <PUBCHEM_SHAPE_SELFOVERLAP>
694.395

> <PUBCHEM_SHAPE_VOLUME>
185.8

> <PUBCHEM_COORDINATE_TYPE>
2
5
10

$$$$
