36231
  -OEChem-03192122563D

 22 23  0     0  0  0  0  0  0999 V2000
   -3.6117   -2.6510    0.7097 Cl  0  0  0  0  0  0  0  0  0  0  0  0
    3.6117   -2.6510   -0.7097 Cl  0  0  0  0  0  0  0  0  0  0  0  0
   -3.6123    2.6507   -0.7106 Cl  0  0  0  0  0  0  0  0  0  0  0  0
    3.6123    2.6507    0.7107 Cl  0  0  0  0  0  0  0  0  0  0  0  0
   -5.2514    0.0003    0.0012 Cl  0  0  0  0  0  0  0  0  0  0  0  0
    5.2513    0.0003   -0.0013 Cl  0  0  0  0  0  0  0  0  0  0  0  0
   -0.7234    0.0001   -0.0001 C   0  0  0  0  0  0  0  0  0  0  0  0
    0.7234    0.0000    0.0000 C   0  0  0  0  0  0  0  0  0  0  0  0
   -1.4207    1.1669   -0.3128 C   0  0  0  0  0  0  0  0  0  0  0  0
    1.4207    1.1668    0.3128 C   0  0  0  0  0  0  0  0  0  0  0  0
   -1.4209   -1.1669    0.3126 C   0  0  0  0  0  0  0  0  0  0  0  0
    1.4208   -1.1668   -0.3126 C   0  0  0  0  0  0  0  0  0  0  0  0
   -2.8158   -1.1668    0.3124 C   0  0  0  0  0  0  0  0  0  0  0  0
    2.8158   -1.1668   -0.3124 C   0  0  0  0  0  0  0  0  0  0  0  0
   -2.8156    1.1668   -0.3129 C   0  0  0  0  0  0  0  0  0  0  0  0
    2.8156    1.1668    0.3128 C   0  0  0  0  0  0  0  0  0  0  0  0
   -3.5131    0.0000   -0.0002 C   0  0  0  0  0  0  0  0  0  0  0  0
    3.5131    0.0000    0.0003 C   0  0  0  0  0  0  0  0  0  0  0  0
   -0.9039    2.0818   -0.5928 H   0  0  0  0  0  0  0  0  0  0  0  0
    0.9040    2.0818    0.5929 H   0  0  0  0  0  0  0  0  0  0  0  0
   -0.9041   -2.0817    0.5927 H   0  0  0  0  0  0  0  0  0  0  0  0
    0.9041   -2.0817   -0.5927 H   0  0  0  0  0  0  0  0  0  0  0  0
  1 13  1  0  0  0  0
  2 14  1  0  0  0  0
  3 15  1  0  0  0  0
  4 16  1  0  0  0  0
  5 17  1  0  0  0  0
  6 18  1  0  0  0  0
  7  8  1  0  0  0  0
  7  9  2  0  0  0  0
  7 11  1  0  0  0  0
  8 10  2  0  0  0  0
  8 12  1  0  0  0  0
  9 15  1  0  0  0  0
  9 19  1  0  0  0  0
 10 16  1  0  0  0  0
 10 20  1  0  0  0  0
 11 13  2  0  0  0  0
 11 21  1  0  0  0  0
 12 14  2  0  0  0  0
 12 22  1  0  0  0  0
 13 17  1  0  0  0  0
 14 18  1  0  0  0  0
 15 17  2  0  0  0  0
 16 18  2  0  0  0  0
M  END
> <PUBCHEM_COMPOUND_CID>
36231

> <PUBCHEM_CONFORMER_RMSD>
0.6

> <PUBCHEM_CONFORMER_DIVERSEORDER>
1
2

> <PUBCHEM_MMFF94_PARTIAL_CHARGES>
20
1 -0.18
10 -0.15
11 -0.15
12 -0.15
13 0.18
14 0.18
15 0.18
16 0.18
17 0.18
18 0.18
19 0.15
2 -0.18
20 0.15
21 0.15
22 0.15
3 -0.18
4 -0.18
5 -0.18
6 -0.18
9 -0.15

> <PUBCHEM_EFFECTIVE_ROTOR_COUNT>
1

> <PUBCHEM_PHARMACOPHORE_FEATURES>
2
6 7 9 11 13 15 17 rings
6 8 10 12 14 16 18 rings

> <PUBCHEM_HEAVY_ATOM_COUNT>
18

> <PUBCHEM_ATOM_DEF_STEREO_COUNT>
0

> <PUBCHEM_ATOM_UDEF_STEREO_COUNT>
0

> <PUBCHEM_BOND_DEF_STEREO_COUNT>
0

> <PUBCHEM_BOND_UDEF_STEREO_COUNT>
0

> <PUBCHEM_ISOTOPIC_ATOM_COUNT>
0

> <PUBCHEM_COMPONENT_COUNT>
1

> <PUBCHEM_CACTVS_TAUTO_COUNT>
1

> <PUBCHEM_CONFORMER_ID>
00008D8700000001

> <PUBCHEM_MMFF94_ENERGY>
52.3361

> <PUBCHEM_FEATURE_SELFOVERLAP>
10.149

> <PUBCHEM_SHAPE_FINGERPRINT>
10608611 8 18410289215935266176
10616163 171 18410295847412393455
10646746 165 18334853922466713904
11405975 8 18410856542465195601
11471102 20 18343582936995420750
11552529 35 17773883189092495163
12403259 415 18410569587110864397
12500047 106 18262233322556315981
12507560 40 18411699850709183076
13134695 92 17274248453810738752
13544592 145 18265055730054971630
13583140 156 18272086114777062798
14866123 147 16685703815135989018
15196674 1 18410573985151451137
15219456 202 18411981372930501296
15442244 35 18198627623019756656
15961568 22 17750515259761666412
17804303 29 18264776462823358775
17834074 16 18410858758663343938
18186145 218 18116147779589341941
19141452 34 18340493352556386467
200 152 17775563135273882199
20279233 1 18410579487004784674
20510252 161 18411417276996688001
20645477 56 18334294241241978173
20645477 70 17917433064761085502
20681677 76 18411976987768905125
21065198 57 18410855442948292626
21065199 12 18410575119022817515
21065201 7 18114178618509065578
21267235 1 18410582785539557570
21709351 56 18341606040837651060
221357 26 18341609279063773781
221490 88 18411706499761909090
22943178 12 18410571786128202081
23402539 116 18114456859444168799
23402655 69 18200025144884608981
23557571 272 18113335301754615565
23559900 14 18410571794913335080
26918003 58 18413670227128028275
3004659 81 18044101159916126470
335352 9 18122624946537497061
350125 39 18410579521602003836
3545911 37 18411139134133441748
4214541 1 18409729534610004809
495365 180 17916849279831354384
5104073 3 18410573946496746386
5281201 14 18340489971604572620
58051976 100 18342740740668363327
69090 78 18413385441264451079
7364860 26 18343301470650816646
77779 3 18410576188469712972
9709674 26 18411700967553933623

> <PUBCHEM_SHAPE_MULTIPOLES>
381.65
10.48
2.87
0.79
0
0
0
0
0
0
0
0
0
1.93

> <PUBCHEM_SHAPE_SELFOVERLAP>
773.178

> <PUBCHEM_SHAPE_VOLUME>
215.1

> <PUBCHEM_COORDINATE_TYPE>
2
5
10

$$$$
