36400
  -OEChem-03192123113D

 22 23  0     0  0  0  0  0  0999 V2000
   -3.6769    2.6060    0.7000 Cl  0  0  0  0  0  0  0  0  0  0  0  0
    3.6768    2.6061   -0.7000 Cl  0  0  0  0  0  0  0  0  0  0  0  0
   -3.6766   -2.6064   -0.6990 Cl  0  0  0  0  0  0  0  0  0  0  0  0
    3.6766   -2.6065    0.6990 Cl  0  0  0  0  0  0  0  0  0  0  0  0
   -0.7235    0.0001   -0.0002 C   0  0  0  0  0  0  0  0  0  0  0  0
    0.7235    0.0001    0.0002 C   0  0  0  0  0  0  0  0  0  0  0  0
   -1.4209   -1.1667   -0.3130 C   0  0  0  0  0  0  0  0  0  0  0  0
    1.4209   -1.1667    0.3129 C   0  0  0  0  0  0  0  0  0  0  0  0
   -1.4211    1.1668    0.3125 C   0  0  0  0  0  0  0  0  0  0  0  0
    1.4211    1.1668   -0.3126 C   0  0  0  0  0  0  0  0  0  0  0  0
   -2.8159    1.1669    0.3125 C   0  0  0  0  0  0  0  0  0  0  0  0
    2.8159    1.1668   -0.3124 C   0  0  0  0  0  0  0  0  0  0  0  0
   -2.8159   -1.1668   -0.3131 C   0  0  0  0  0  0  0  0  0  0  0  0
    2.8158   -1.1668    0.3131 C   0  0  0  0  0  0  0  0  0  0  0  0
   -3.5133    0.0001   -0.0004 C   0  0  0  0  0  0  0  0  0  0  0  0
    3.5133    0.0001    0.0004 C   0  0  0  0  0  0  0  0  0  0  0  0
   -0.9078   -2.0836   -0.5925 H   0  0  0  0  0  0  0  0  0  0  0  0
    0.9077   -2.0836    0.5925 H   0  0  0  0  0  0  0  0  0  0  0  0
   -0.9080    2.0836    0.5925 H   0  0  0  0  0  0  0  0  0  0  0  0
    0.9079    2.0837   -0.5926 H   0  0  0  0  0  0  0  0  0  0  0  0
   -4.6012    0.0001   -0.0002 H   0  0  0  0  0  0  0  0  0  0  0  0
    4.6012    0.0000    0.0004 H   0  0  0  0  0  0  0  0  0  0  0  0
  1 11  1  0  0  0  0
  2 12  1  0  0  0  0
  3 13  1  0  0  0  0
  4 14  1  0  0  0  0
  5  6  1  0  0  0  0
  5  7  2  0  0  0  0
  5  9  1  0  0  0  0
  6  8  2  0  0  0  0
  6 10  1  0  0  0  0
  7 13  1  0  0  0  0
  7 17  1  0  0  0  0
  8 14  1  0  0  0  0
  8 18  1  0  0  0  0
  9 11  2  0  0  0  0
  9 19  1  0  0  0  0
 10 12  2  0  0  0  0
 10 20  1  0  0  0  0
 11 15  1  0  0  0  0
 12 16  1  0  0  0  0
 13 15  2  0  0  0  0
 14 16  2  0  0  0  0
 15 21  1  0  0  0  0
 16 22  1  0  0  0  0
M  END
> <PUBCHEM_COMPOUND_CID>
36400

> <PUBCHEM_CONFORMER_RMSD>
0.6

> <PUBCHEM_CONFORMER_DIVERSEORDER>
1
2

> <PUBCHEM_MMFF94_PARTIAL_CHARGES>
20
1 -0.18
10 -0.15
11 0.18
12 0.18
13 0.18
14 0.18
15 -0.15
16 -0.15
17 0.15
18 0.15
19 0.15
2 -0.18
20 0.15
21 0.15
22 0.15
3 -0.18
4 -0.18
7 -0.15
8 -0.15
9 -0.15

> <PUBCHEM_EFFECTIVE_ROTOR_COUNT>
1

> <PUBCHEM_PHARMACOPHORE_FEATURES>
2
6 5 7 9 11 13 15 rings
6 6 8 10 12 14 16 rings

> <PUBCHEM_HEAVY_ATOM_COUNT>
16

> <PUBCHEM_ATOM_DEF_STEREO_COUNT>
0

> <PUBCHEM_ATOM_UDEF_STEREO_COUNT>
0

> <PUBCHEM_BOND_DEF_STEREO_COUNT>
0

> <PUBCHEM_BOND_UDEF_STEREO_COUNT>
0

> <PUBCHEM_ISOTOPIC_ATOM_COUNT>
0

> <PUBCHEM_COMPONENT_COUNT>
1

> <PUBCHEM_CACTVS_TAUTO_COUNT>
1

> <PUBCHEM_CONFORMER_ID>
00008E3000000001

> <PUBCHEM_MMFF94_ENERGY>
43.2874

> <PUBCHEM_FEATURE_SELFOVERLAP>
10.149

> <PUBCHEM_SHAPE_FINGERPRINT>
10062212 137 18340761546866347059
10465860 228 18335708226053956072
10616163 171 18341896315717483047
11769659 78 18410848863058778406
12107183 9 18050285860342989403
12173636 292 18343860022341663733
12251169 10 18266740186152960120
12553582 1 17912353535921318623
13140716 1 18338797814550626674
13583140 156 17532942597682031785
13760787 19 18411987969995045300
14115302 16 18058447608191636960
14144814 61 18410855451538227265
14178342 30 18339623565300975130
14289901 80 18410575123317784963
14576447 43 18195520613291676254
14965852 173 18411696552343215083
15099037 8 18410567392524780163
15375462 189 18270407212425157275
15442244 35 18337953372709644088
15536298 74 18412825785545359106
15669948 3 18131067181789428575
16945 1 18191017902727271325
17041 49 18264769861753815954
17492 89 18410855468777125547
18186145 218 17240202110125743674
19050596 39 18410574010963472626
19141452 34 18124590890756268890
19422 9 18410572889935115462
200 152 18266451182589502007
201361 129 18335988631573117636
20281475 54 18410569587110481126
20510252 161 18130231553120967913
20645477 70 18260537944214347982
21267235 1 18410583885051445191
21501502 16 18410855464423129095
21618674 54 18410008870619045156
221490 88 18334583468518828106
2255824 54 18261112959374241586
23366157 5 18040718069799807278
23402655 69 18408887321556446972
23463225 33 18410572847206839238
23503953 91 18339072683967992872
23557571 272 17775567520029413617
23558518 356 18408324388983510819
23559900 14 17916874500201044014
23598288 3 18131069350932432119
23598291 2 18335980895893906062
312423 11 18408328791087527759
335352 9 18122624950832464277
4409770 3 17105359980365612508
474 4 17896044406778910332
5104073 3 18410575058893276130
53777708 50 18410857667762554986
57096353 35 18266459999666438750
58051976 100 18410013212904854199
58051976 378 18194123155893271582
603831 33 18198335354431613246
633830 44 17095529456717014312
67856867 119 18337099168439880520
7097593 13 18265328409139327874
7164475 11 18411693314154054487
7364860 26 18410293610451207308
74978 22 18410573942201778254
7615 1 18410848863058473093
7832392 63 18339081493088510212
84936 182 18341050834752897576
9709674 26 18408889559319206834
9939556 21 18410856533869985864
9981440 41 18046906267143829568

> <PUBCHEM_SHAPE_MULTIPOLES>
336.75
8.24
3.1
0.8
0
0
0
0
0
0
0
0
0
-2.17

> <PUBCHEM_SHAPE_SELFOVERLAP>
693.633

> <PUBCHEM_SHAPE_VOLUME>
188.7

> <PUBCHEM_COORDINATE_TYPE>
2
5
10

$$$$
