18781
  -OEChem-03202123503D

 33 36  0     0  0  0  0  0  0999 V2000
    0.2005   -0.4239    0.0000 C   0  0  0  0  0  0  0  0  0  0  0  0
   -0.7595    0.6302    0.0001 C   0  0  0  0  0  0  0  0  0  0  0  0
    1.6157   -0.1319   -0.0001 C   0  0  0  0  0  0  0  0  0  0  0  0
   -2.1746    0.3382    0.0002 C   0  0  0  0  0  0  0  0  0  0  0  0
    2.0440    1.2171   -0.0004 C   0  0  0  0  0  0  0  0  0  0  0  0
   -2.6032   -1.0108   -0.0003 C   0  0  0  0  0  0  0  0  0  0  0  0
   -0.2636    1.9498    0.0001 C   0  0  0  0  0  0  0  0  0  0  0  0
   -0.2955   -1.7435   -0.0002 C   0  0  0  0  0  0  0  0  0  0  0  0
    1.0994    2.2380   -0.0003 C   0  0  0  0  0  0  0  0  0  0  0  0
    2.6419   -1.1136    0.0001 C   0  0  0  0  0  0  0  0  0  0  0  0
   -1.6585   -2.0318   -0.0005 C   0  0  0  0  0  0  0  0  0  0  0  0
    3.9999   -0.7801   -0.0001 C   0  0  0  0  0  0  0  0  0  0  0  0
    3.4118    1.5434   -0.0004 C   0  0  0  0  0  0  0  0  0  0  0  0
   -3.2010    1.3199    0.0008 C   0  0  0  0  0  0  0  0  0  0  0  0
    4.3852    0.5505   -0.0004 C   0  0  0  0  0  0  0  0  0  0  0  0
   -3.9709   -1.3370   -0.0005 C   0  0  0  0  0  0  0  0  0  0  0  0
   -4.5589    0.9865    0.0006 C   0  0  0  0  0  0  0  0  0  0  0  0
   -4.9443   -0.3441   -0.0001 C   0  0  0  0  0  0  0  0  0  0  0  0
    5.0316   -1.8570    0.0013 C   0  0  0  0  0  0  0  0  0  0  0  0
   -0.9327    2.8063    0.0003 H   0  0  0  0  0  0  0  0  0  0  0  0
    0.3727   -2.6007   -0.0003 H   0  0  0  0  0  0  0  0  0  0  0  0
    1.4072    3.2822   -0.0004 H   0  0  0  0  0  0  0  0  0  0  0  0
    2.3943   -2.1723   -0.0012 H   0  0  0  0  0  0  0  0  0  0  0  0
   -1.9663   -3.0759   -0.0008 H   0  0  0  0  0  0  0  0  0  0  0  0
    3.7323    2.5838   -0.0009 H   0  0  0  0  0  0  0  0  0  0  0  0
   -2.9653    2.3810    0.0014 H   0  0  0  0  0  0  0  0  0  0  0  0
    5.4344    0.8315   -0.0020 H   0  0  0  0  0  0  0  0  0  0  0  0
   -4.2917   -2.3773   -0.0009 H   0  0  0  0  0  0  0  0  0  0  0  0
   -5.3095    1.7716    0.0009 H   0  0  0  0  0  0  0  0  0  0  0  0
   -5.9967   -0.6101   -0.0002 H   0  0  0  0  0  0  0  0  0  0  0  0
    5.1087   -2.3052   -0.9944 H   0  0  0  0  0  0  0  0  0  0  0  0
    6.0181   -1.4719    0.2811 H   0  0  0  0  0  0  0  0  0  0  0  0
    4.7735   -2.6383    0.7242 H   0  0  0  0  0  0  0  0  0  0  0  0
  1  2  2  0  0  0  0
  1  3  1  0  0  0  0
  1  8  1  0  0  0  0
  2  4  1  0  0  0  0
  2  7  1  0  0  0  0
  3  5  2  0  0  0  0
  3 10  1  0  0  0  0
  4  6  1  0  0  0  0
  4 14  2  0  0  0  0
  5  9  1  0  0  0  0
  5 13  1  0  0  0  0
  6 11  1  0  0  0  0
  6 16  2  0  0  0  0
  7  9  2  0  0  0  0
  7 20  1  0  0  0  0
  8 11  2  0  0  0  0
  8 21  1  0  0  0  0
  9 22  1  0  0  0  0
 10 12  2  0  0  0  0
 10 23  1  0  0  0  0
 11 24  1  0  0  0  0
 12 15  1  0  0  0  0
 12 19  1  0  0  0  0
 13 15  2  0  0  0  0
 13 25  1  0  0  0  0
 14 17  1  0  0  0  0
 14 26  1  0  0  0  0
 15 27  1  0  0  0  0
 16 18  1  0  0  0  0
 16 28  1  0  0  0  0
 17 18  2  0  0  0  0
 17 29  1  0  0  0  0
 18 30  1  0  0  0  0
 19 31  1  0  0  0  0
 19 32  1  0  0  0  0
 19 33  1  0  0  0  0
M  END
> <PUBCHEM_COMPOUND_CID>
18781

> <PUBCHEM_CONFORMER_RMSD>
0.4

> <PUBCHEM_CONFORMER_DIVERSEORDER>
1

> <PUBCHEM_MMFF94_PARTIAL_CHARGES>
24
10 -0.15
11 -0.15
12 -0.14
13 -0.15
14 -0.15
15 -0.15
16 -0.15
17 -0.15
18 -0.15
19 0.14
20 0.15
21 0.15
22 0.15
23 0.15
24 0.15
25 0.15
26 0.15
27 0.15
28 0.15
29 0.15
30 0.15
7 -0.15
8 -0.15
9 -0.15

> <PUBCHEM_EFFECTIVE_ROTOR_COUNT>
0

> <PUBCHEM_PHARMACOPHORE_FEATURES>
4
6 1 2 3 5 7 9 rings
6 1 2 4 6 8 11 rings
6 3 5 10 12 13 15 rings
6 4 6 14 16 17 18 rings

> <PUBCHEM_HEAVY_ATOM_COUNT>
19

> <PUBCHEM_ATOM_DEF_STEREO_COUNT>
0

> <PUBCHEM_ATOM_UDEF_STEREO_COUNT>
0

> <PUBCHEM_BOND_DEF_STEREO_COUNT>
0

> <PUBCHEM_BOND_UDEF_STEREO_COUNT>
0

> <PUBCHEM_ISOTOPIC_ATOM_COUNT>
0

> <PUBCHEM_COMPONENT_COUNT>
1

> <PUBCHEM_CACTVS_TAUTO_COUNT>
1

> <PUBCHEM_CONFORMER_ID>
0000495D00000001

> <PUBCHEM_MMFF94_ENERGY>
70.054

> <PUBCHEM_FEATURE_SELFOVERLAP>
20.367

> <PUBCHEM_SHAPE_FINGERPRINT>
10062212 137 18272082816601070367
10616163 171 18196094562756452342
10967382 1 18410573980872314598
11132069 177 18411414020667341176
11471102 20 18410571807645282164
11578080 2 16842468252838896755
116883 192 18270689649685337316
12403259 226 18339356474459934105
12715332 25 18130785672458468591
12788726 201 17917444089836866664
13140716 1 18411422816723323394
13288520 33 18340208501212881950
13583140 156 14836111144111172750
13675066 3 18261957443842740785
13690532 89 18410856551049854992
13862211 1 18410851027727654799
14115302 16 17967824863772524574
14178342 30 17765133352820033882
14341114 176 18335428993113061955
14790565 3 18338806589470304473
14866123 147 17550959087534365346
15042514 8 17977379431250761010
15099037 51 18410292484537052503
15196674 1 18410573998041640773
15256400 18 18411700963190348945
15442244 35 18411419535378864912
15536298 74 18341894121141584240
16945 1 17978510059172745889
17349148 13 18060139838238524807
17492 89 18266740379527637567
17804303 29 18411703192325705445
1813 80 17240480321212263316
18186145 218 17822002125211161614
19141452 34 18343581858526431239
19591789 44 18409446964316465379
200 152 18060698403367940463
20028762 73 18129940191357473935
20645477 70 18412545397063895566
21029758 11 18342735230473235689
21267235 1 18410582772697100586
21279426 13 18265894666064248733
21452121 103 18271514403860764040
221490 88 18191311674158505275
23366157 5 17970062455898068204
23402539 116 18272363153268905967
23463225 33 18410012156348154396
23559900 14 18413668015952970232
3004659 81 18260552191485655374
335352 9 18338798914326122045
34934 24 18340482382950988328
350125 39 18409732820128429301
3545911 37 18411702123242832576
4214541 1 18410855447533566145
474 4 17241894392071371092
495365 180 17417800794911979760
5104073 3 18411419531073329571
6138700 20 18265616485771273406
633830 44 17530963613536561521
69090 78 18341610442841492927
7364860 26 18197779006275754048
77779 3 18410012160516384645
8809292 202 18334017215397666707
9709674 26 18265336281714206483
9981440 41 17255679123498577952

> <PUBCHEM_SHAPE_MULTIPOLES>
391.01
9.74
2.29
0.62
0.21
0.12
0
-1.96
0
0.6
0
0
0
0

> <PUBCHEM_SHAPE_SELFOVERLAP>
893.52

> <PUBCHEM_SHAPE_VOLUME>
187.1

> <PUBCHEM_COORDINATE_TYPE>
2
5
10

$$$$
