18848
  -OEChem-03202123463D

 21 20  0     1  0  0  0  0  0999 V2000
   -0.7270   -0.5256    0.2913 C   0  0  2  0  0  0  0  0  0  0  0  0
    0.7513   -0.7297   -0.0934 C   0  0  0  0  0  0  0  0  0  0  0  0
    1.6316    0.4801    0.2360 C   0  0  0  0  0  0  0  0  0  0  0  0
   -1.5247   -1.7974   -0.0095 C   0  0  0  0  0  0  0  0  0  0  0  0
   -1.3446    0.6371   -0.4453 C   0  0  0  0  0  0  0  0  0  0  0  0
    3.0844    0.2261   -0.1367 C   0  0  0  0  0  0  0  0  0  0  0  0
   -1.8710    1.7094    0.1575 C   0  0  0  0  0  0  0  0  0  0  0  0
   -0.7777   -0.3477    1.3738 H   0  0  0  0  0  0  0  0  0  0  0  0
    0.8296   -0.9519   -1.1660 H   0  0  0  0  0  0  0  0  0  0  0  0
    1.1407   -1.6081    0.4374 H   0  0  0  0  0  0  0  0  0  0  0  0
    1.5677    0.7048    1.3069 H   0  0  0  0  0  0  0  0  0  0  0  0
    1.2864    1.3677   -0.3051 H   0  0  0  0  0  0  0  0  0  0  0  0
   -2.5744   -1.6812    0.2829 H   0  0  0  0  0  0  0  0  0  0  0  0
   -1.1183   -2.6495    0.5461 H   0  0  0  0  0  0  0  0  0  0  0  0
   -1.4976   -2.0478   -1.0762 H   0  0  0  0  0  0  0  0  0  0  0  0
   -1.3584    0.5945   -1.5318 H   0  0  0  0  0  0  0  0  0  0  0  0
    3.6967    1.0997    0.1080 H   0  0  0  0  0  0  0  0  0  0  0  0
    3.4853   -0.6333    0.4103 H   0  0  0  0  0  0  0  0  0  0  0  0
    3.1858    0.0295   -1.2088 H   0  0  0  0  0  0  0  0  0  0  0  0
   -2.3002    2.5139   -0.4296 H   0  0  0  0  0  0  0  0  0  0  0  0
   -1.8830    1.8045    1.2376 H   0  0  0  0  0  0  0  0  0  0  0  0
  1  2  1  0  0  0  0
  1  4  1  0  0  0  0
  1  5  1  0  0  0  0
  1  8  1  0  0  0  0
  2  3  1  0  0  0  0
  2  9  1  0  0  0  0
  2 10  1  0  0  0  0
  3  6  1  0  0  0  0
  3 11  1  0  0  0  0
  3 12  1  0  0  0  0
  4 13  1  0  0  0  0
  4 14  1  0  0  0  0
  4 15  1  0  0  0  0
  5  7  2  0  0  0  0
  5 16  1  0  0  0  0
  6 17  1  0  0  0  0
  6 18  1  0  0  0  0
  6 19  1  0  0  0  0
  7 20  1  0  0  0  0
  7 21  1  0  0  0  0
M  END
> <PUBCHEM_COMPOUND_CID>
18848

> <PUBCHEM_CONFORMER_RMSD>
0.4

> <PUBCHEM_CONFORMER_DIVERSEORDER>
6
19
16
13
27
5
23
24
9
8
21
15
10
26
18
17
20
3
22
14
12
7
25
1
2
11
4

> <PUBCHEM_MMFF94_PARTIAL_CHARGES>
6
1 0.14
16 0.15
20 0.15
21 0.15
5 -0.29
7 -0.3

> <PUBCHEM_EFFECTIVE_ROTOR_COUNT>
3

> <PUBCHEM_PHARMACOPHORE_FEATURES>
4
1 4 hydrophobe
1 6 hydrophobe
1 7 hydrophobe
4 1 2 3 5 hydrophobe

> <PUBCHEM_HEAVY_ATOM_COUNT>
7

> <PUBCHEM_ATOM_DEF_STEREO_COUNT>
0

> <PUBCHEM_ATOM_UDEF_STEREO_COUNT>
1

> <PUBCHEM_BOND_DEF_STEREO_COUNT>
0

> <PUBCHEM_BOND_UDEF_STEREO_COUNT>
0

> <PUBCHEM_ISOTOPIC_ATOM_COUNT>
0

> <PUBCHEM_COMPONENT_COUNT>
1

> <PUBCHEM_CACTVS_TAUTO_COUNT>
1

> <PUBCHEM_CONFORMER_ID>
000049A000000006

> <PUBCHEM_MMFF94_ENERGY>
1.6696

> <PUBCHEM_FEATURE_SELFOVERLAP>
20.345

> <PUBCHEM_SHAPE_FINGERPRINT>
100427 49 17763466514276849425
14390081 3 18342733001353515016
16714656 1 18339363075339085551
19973954 147 18339923835138988144
20096714 4 18193835942544906049
21040471 1 18338514114796752072
23235685 24 18339920407333066777
23552423 10 18259704510527272642
23552449 1 18339921631403767552

> <PUBCHEM_SHAPE_MULTIPOLES>
144.06
3.6
1.71
0.67
3.03
0.14
0.01
-0.81
0.12
-1.46
-0.05
-0.03
-0.02
0.01

> <PUBCHEM_SHAPE_SELFOVERLAP>
252.462

> <PUBCHEM_SHAPE_VOLUME>
96.2

> <PUBCHEM_COORDINATE_TYPE>
2
5
10

$$$$
