18852
  -OEChem-03192122553D

 21 20  0     0  0  0  0  0  0999 V2000
   -0.0255    0.4859    0.0042 C   0  0  0  0  0  0  0  0  0  0  0  0
    1.4393    0.1494   -0.3924 C   0  0  0  0  0  0  0  0  0  0  0  0
   -0.3851    1.8544   -0.6135 C   0  0  0  0  0  0  0  0  0  0  0  0
   -0.1426    0.6196    1.5362 C   0  0  0  0  0  0  0  0  0  0  0  0
   -0.9700   -0.5447   -0.5994 C   0  0  0  0  0  0  0  0  0  0  0  0
    1.9283   -1.2349    0.0228 C   0  0  0  0  0  0  0  0  0  0  0  0
   -1.8444   -1.3297    0.0421 C   0  0  0  0  0  0  0  0  0  0  0  0
    2.1160    0.8994    0.0377 H   0  0  0  0  0  0  0  0  0  0  0  0
    1.5524    0.2297   -1.4821 H   0  0  0  0  0  0  0  0  0  0  0  0
    0.2794    2.6426   -0.2409 H   0  0  0  0  0  0  0  0  0  0  0  0
   -1.4138    2.1446   -0.3684 H   0  0  0  0  0  0  0  0  0  0  0  0
   -0.2977    1.8401   -1.7066 H   0  0  0  0  0  0  0  0  0  0  0  0
   -1.1455    0.9481    1.8335 H   0  0  0  0  0  0  0  0  0  0  0  0
    0.0612   -0.3262    2.0490 H   0  0  0  0  0  0  0  0  0  0  0  0
    0.5686    1.3602    1.9204 H   0  0  0  0  0  0  0  0  0  0  0  0
   -0.9213   -0.6517   -1.6828 H   0  0  0  0  0  0  0  0  0  0  0  0
    1.8949   -1.3649    1.1081 H   0  0  0  0  0  0  0  0  0  0  0  0
    1.3393   -2.0309   -0.4421 H   0  0  0  0  0  0  0  0  0  0  0  0
    2.9683   -1.3693   -0.2930 H   0  0  0  0  0  0  0  0  0  0  0  0
   -2.4600   -2.0267   -0.5172 H   0  0  0  0  0  0  0  0  0  0  0  0
   -1.9727   -1.3048    1.1172 H   0  0  0  0  0  0  0  0  0  0  0  0
  1  2  1  0  0  0  0
  1  3  1  0  0  0  0
  1  4  1  0  0  0  0
  1  5  1  0  0  0  0
  2  6  1  0  0  0  0
  2  8  1  0  0  0  0
  2  9  1  0  0  0  0
  3 10  1  0  0  0  0
  3 11  1  0  0  0  0
  3 12  1  0  0  0  0
  4 13  1  0  0  0  0
  4 14  1  0  0  0  0
  4 15  1  0  0  0  0
  5  7  2  0  0  0  0
  5 16  1  0  0  0  0
  6 17  1  0  0  0  0
  6 18  1  0  0  0  0
  6 19  1  0  0  0  0
  7 20  1  0  0  0  0
  7 21  1  0  0  0  0
M  END
> <PUBCHEM_COMPOUND_CID>
18852

> <PUBCHEM_CONFORMER_RMSD>
0.4

> <PUBCHEM_CONFORMER_DIVERSEORDER>
1
3
4
6
2
5

> <PUBCHEM_MMFF94_PARTIAL_CHARGES>
6
1 0.14
16 0.15
20 0.15
21 0.15
5 -0.29
7 -0.3

> <PUBCHEM_EFFECTIVE_ROTOR_COUNT>
2

> <PUBCHEM_PHARMACOPHORE_FEATURES>
3
1 6 hydrophobe
1 7 hydrophobe
3 1 3 4 hydrophobe

> <PUBCHEM_HEAVY_ATOM_COUNT>
7

> <PUBCHEM_ATOM_DEF_STEREO_COUNT>
0

> <PUBCHEM_ATOM_UDEF_STEREO_COUNT>
0

> <PUBCHEM_BOND_DEF_STEREO_COUNT>
0

> <PUBCHEM_BOND_UDEF_STEREO_COUNT>
0

> <PUBCHEM_ISOTOPIC_ATOM_COUNT>
0

> <PUBCHEM_COMPONENT_COUNT>
1

> <PUBCHEM_CACTVS_TAUTO_COUNT>
1

> <PUBCHEM_CONFORMER_ID>
000049A400000001

> <PUBCHEM_MMFF94_ENERGY>
11.806

> <PUBCHEM_FEATURE_SELFOVERLAP>
15.226

> <PUBCHEM_SHAPE_FINGERPRINT>
137420 1 12081008169230162445
18185500 45 18340495580863580990
20653091 64 17983307215768023563
21040471 1 17688867540908372852
24536 1 17760628657870546615
29004967 10 18189899901217891234
5943 1 12421410341970749617
68250623 7 16667967657344689729

> <PUBCHEM_SHAPE_MULTIPOLES>
144.06
2.09
1.71
1.08
0.42
0.33
0.45
-1.29
-0.17
-0.28
-0.23
-0.09
0.28
-0.01

> <PUBCHEM_SHAPE_SELFOVERLAP>
258.457

> <PUBCHEM_SHAPE_VOLUME>
96.1

> <PUBCHEM_COORDINATE_TYPE>
2
5
10

$$$$
