19352
  -OEChem-03212101423D

 30 32  0     0  0  0  0  0  0999 V2000
    1.2806   -0.0100   -0.1468 C   0  0  0  0  0  0  0  0  0  0  0  0
    0.9578    1.3440   -0.2668 C   0  0  0  0  0  0  0  0  0  0  0  0
    0.2488   -0.9742   -0.0031 C   0  0  0  0  0  0  0  0  0  0  0  0
   -1.1231   -0.5371    0.0166 C   0  0  0  0  0  0  0  0  0  0  0  0
   -1.4105    0.8472   -0.1080 C   0  0  0  0  0  0  0  0  0  0  0  0
   -0.3674    1.7662   -0.2477 C   0  0  0  0  0  0  0  0  0  0  0  0
    2.0017    2.4089   -0.4215 C   0  0  0  0  0  0  0  0  0  0  0  0
    2.6293   -0.4041   -0.1698 C   0  0  0  0  0  0  0  0  0  0  0  0
    0.6543   -2.3274    0.1131 C   0  0  0  0  0  0  0  0  0  0  0  0
   -2.2333   -1.4075    0.1544 C   0  0  0  0  0  0  0  0  0  0  0  0
   -2.7389    1.3060   -0.0924 C   0  0  0  0  0  0  0  0  0  0  0  0
    2.4656    2.9560    0.9227 C   0  0  0  0  0  0  0  0  0  0  0  0
    2.9873   -1.7435   -0.0527 C   0  0  0  0  0  0  0  0  0  0  0  0
    1.9995   -2.7057    0.0889 C   0  0  0  0  0  0  0  0  0  0  0  0
   -3.5495   -0.9381    0.1683 C   0  0  0  0  0  0  0  0  0  0  0  0
   -3.8022    0.4193    0.0448 C   0  0  0  0  0  0  0  0  0  0  0  0
   -0.5948    2.8278   -0.3393 H   0  0  0  0  0  0  0  0  0  0  0  0
    2.8512    2.0844   -1.0302 H   0  0  0  0  0  0  0  0  0  0  0  0
    1.5810    3.2433   -1.0003 H   0  0  0  0  0  0  0  0  0  0  0  0
    3.4511    0.2993   -0.2591 H   0  0  0  0  0  0  0  0  0  0  0  0
   -0.0756   -3.1248    0.2267 H   0  0  0  0  0  0  0  0  0  0  0  0
   -2.0963   -2.4812    0.2549 H   0  0  0  0  0  0  0  0  0  0  0  0
   -2.9589    2.3679   -0.1879 H   0  0  0  0  0  0  0  0  0  0  0  0
    1.6298    3.3776    1.4914 H   0  0  0  0  0  0  0  0  0  0  0  0
    3.2048    3.7492    0.7718 H   0  0  0  0  0  0  0  0  0  0  0  0
    2.9281    2.1752    1.5353 H   0  0  0  0  0  0  0  0  0  0  0  0
    4.0337   -2.0329   -0.0679 H   0  0  0  0  0  0  0  0  0  0  0  0
    2.2691   -3.7537    0.1821 H   0  0  0  0  0  0  0  0  0  0  0  0
   -4.3731   -1.6380    0.2759 H   0  0  0  0  0  0  0  0  0  0  0  0
   -4.8231    0.7889    0.0550 H   0  0  0  0  0  0  0  0  0  0  0  0
  1  2  1  0  0  0  0
  1  3  1  0  0  0  0
  1  8  2  0  0  0  0
  2  6  2  0  0  0  0
  2  7  1  0  0  0  0
  3  4  1  0  0  0  0
  3  9  2  0  0  0  0
  4  5  1  0  0  0  0
  4 10  2  0  0  0  0
  5  6  1  0  0  0  0
  5 11  2  0  0  0  0
  6 17  1  0  0  0  0
  7 12  1  0  0  0  0
  7 18  1  0  0  0  0
  7 19  1  0  0  0  0
  8 13  1  0  0  0  0
  8 20  1  0  0  0  0
  9 14  1  0  0  0  0
  9 21  1  0  0  0  0
 10 15  1  0  0  0  0
 10 22  1  0  0  0  0
 11 16  1  0  0  0  0
 11 23  1  0  0  0  0
 12 24  1  0  0  0  0
 12 25  1  0  0  0  0
 12 26  1  0  0  0  0
 13 14  2  0  0  0  0
 13 27  1  0  0  0  0
 14 28  1  0  0  0  0
 15 16  2  0  0  0  0
 15 29  1  0  0  0  0
 16 30  1  0  0  0  0
M  END
> <PUBCHEM_COMPOUND_CID>
19352

> <PUBCHEM_CONFORMER_RMSD>
0.6

> <PUBCHEM_CONFORMER_DIVERSEORDER>
1

> <PUBCHEM_MMFF94_PARTIAL_CHARGES>
20
10 -0.15
11 -0.15
13 -0.15
14 -0.15
15 -0.15
16 -0.15
17 0.15
2 -0.14
20 0.15
21 0.15
22 0.15
23 0.15
27 0.15
28 0.15
29 0.15
30 0.15
6 -0.15
7 0.14
8 -0.15
9 -0.15

> <PUBCHEM_EFFECTIVE_ROTOR_COUNT>
1

> <PUBCHEM_PHARMACOPHORE_FEATURES>
4
1 12 hydrophobe
6 1 2 3 4 5 6 rings
6 1 3 8 9 13 14 rings
6 4 5 10 11 15 16 rings

> <PUBCHEM_HEAVY_ATOM_COUNT>
16

> <PUBCHEM_ATOM_DEF_STEREO_COUNT>
0

> <PUBCHEM_ATOM_UDEF_STEREO_COUNT>
0

> <PUBCHEM_BOND_DEF_STEREO_COUNT>
0

> <PUBCHEM_BOND_UDEF_STEREO_COUNT>
0

> <PUBCHEM_ISOTOPIC_ATOM_COUNT>
0

> <PUBCHEM_COMPONENT_COUNT>
1

> <PUBCHEM_CACTVS_TAUTO_COUNT>
1

> <PUBCHEM_CONFORMER_ID>
00004B9800000001

> <PUBCHEM_MMFF94_ENERGY>
54.3277

> <PUBCHEM_FEATURE_SELFOVERLAP>
20.346

> <PUBCHEM_SHAPE_FINGERPRINT>
10319926 262 17047377754657513552
10608611 8 18408038503180680693
108231 29 18265897951972861650
10967382 1 18337675320584523975
11471102 20 18408882902288073103
11680986 33 18335988678316474723
12553582 1 18194124005906678639
13140716 1 18409730702751192083
13380535 76 18120650498632229144
13897977 150 18409447016072149429
14648413 74 18408324384498256137
14790565 3 17114675012654091164
15042514 8 17255681323032587594
15196674 1 18336829671647014247
15442244 35 18267307534464278273
15536298 74 18342460382340808364
16945 1 18337953389778821429
17990270 104 18408603630329073699
193761 8 18265898153646621750
19591789 44 18193846070394223286
20510252 161 17404293002469961138
20559304 39 18409735032104703814
20645477 70 18335695070753504607
21029758 11 18123742063252368060
21267235 1 18265344906145881715
21501502 16 18410860971035497725
21524375 3 17912366725464677724
221490 88 18335431187498984915
22721475 48 18264213521465088175
2297311 6 18125445199123814158
2334 1 18265617778154879325
23366157 5 18040716991504722084
23402539 116 17908971128504781303
23419403 2 17680110094276155670
23463225 33 18336268916427143015
23557571 272 17838621059425325022
23559900 14 18411973641984093888
2748010 2 18263650730330355461
305870 269 18266455597435995928
3071541 12 18411142454270002468
3071541 158 18261112915759709812
3091708 16 9432450220501565026
335352 9 18121218680108998989
33824 294 18265613367492543627
34934 24 18120083992372286983
352729 6 17471859580723349445
43471831 8 18120651589453721578
458136 41 18192735533137447249
5104073 3 18409454713249520291
54173680 148 17400641519959455302
58807428 26 18194669596003138808
7364860 26 18412825798034797536
7832392 63 18196372511712413585
81228 2 17546175099451586338
84936 182 18129945696877332137
8809292 202 18115035121193572339
9709674 26 18409452483761274131

> <PUBCHEM_SHAPE_MULTIPOLES>
329.27
5.36
3.25
0.7
3.53
0.51
-0.04
-0.2
-0.3
-2.97
-0.35
-0.15
0.19
0.36

> <PUBCHEM_SHAPE_SELFOVERLAP>
734.618

> <PUBCHEM_SHAPE_VOLUME>
163.8

> <PUBCHEM_COORDINATE_TYPE>
2
5
10

$$$$
