19589
  -OEChem-03212101083D

 21 20  0     1  0  0  0  0  0999 V2000
   -0.8936   -0.5594   -0.3583 C   0  0  1  0  0  0  0  0  0  0  0  0
   -1.3444    0.6188    0.5276 C   0  0  0  0  0  0  0  0  0  0  0  0
    0.5501   -0.4319   -0.8927 C   0  0  0  0  0  0  0  0  0  0  0  0
   -1.1005   -1.8806    0.3921 C   0  0  0  0  0  0  0  0  0  0  0  0
   -1.2723    1.9690   -0.1715 C   0  0  0  0  0  0  0  0  0  0  0  0
    1.6173   -0.3766    0.1635 C   0  0  0  0  0  0  0  0  0  0  0  0
    2.4434    0.6607    0.3393 C   0  0  0  0  0  0  0  0  0  0  0  0
   -1.5538   -0.5855   -1.2362 H   0  0  0  0  0  0  0  0  0  0  0  0
   -0.7485    0.6581    1.4472 H   0  0  0  0  0  0  0  0  0  0  0  0
   -2.3832    0.4507    0.8389 H   0  0  0  0  0  0  0  0  0  0  0  0
    0.7644   -1.2967   -1.5344 H   0  0  0  0  0  0  0  0  0  0  0  0
    0.6187    0.4422   -1.5518 H   0  0  0  0  0  0  0  0  0  0  0  0
   -2.1596   -2.0217    0.6341 H   0  0  0  0  0  0  0  0  0  0  0  0
   -0.5403   -1.9082    1.3321 H   0  0  0  0  0  0  0  0  0  0  0  0
   -0.7853   -2.7315   -0.2209 H   0  0  0  0  0  0  0  0  0  0  0  0
   -1.7110    2.7437    0.4660 H   0  0  0  0  0  0  0  0  0  0  0  0
   -0.2404    2.2631   -0.3813 H   0  0  0  0  0  0  0  0  0  0  0  0
   -1.8281    1.9533   -1.1144 H   0  0  0  0  0  0  0  0  0  0  0  0
    1.7358   -1.2445    0.8065 H   0  0  0  0  0  0  0  0  0  0  0  0
    3.2015    0.6338    1.1144 H   0  0  0  0  0  0  0  0  0  0  0  0
    2.3798    1.5484   -0.2799 H   0  0  0  0  0  0  0  0  0  0  0  0
  1  2  1  0  0  0  0
  1  3  1  0  0  0  0
  1  4  1  0  0  0  0
  1  8  1  0  0  0  0
  2  5  1  0  0  0  0
  2  9  1  0  0  0  0
  2 10  1  0  0  0  0
  3  6  1  0  0  0  0
  3 11  1  0  0  0  0
  3 12  1  0  0  0  0
  4 13  1  0  0  0  0
  4 14  1  0  0  0  0
  4 15  1  0  0  0  0
  5 16  1  0  0  0  0
  5 17  1  0  0  0  0
  5 18  1  0  0  0  0
  6  7  2  0  0  0  0
  6 19  1  0  0  0  0
  7 20  1  0  0  0  0
  7 21  1  0  0  0  0
M  END
> <PUBCHEM_COMPOUND_CID>
19589

> <PUBCHEM_CONFORMER_RMSD>
0.4

> <PUBCHEM_CONFORMER_DIVERSEORDER>
1
20
7
34
35
26
19
8
22
14
32
16
10
31
6
28
25
15
2
27
13
30
24
17
3
11
21
18
29
9
23
12
33
4
5

> <PUBCHEM_MMFF94_PARTIAL_CHARGES>
6
19 0.15
20 0.15
21 0.15
3 0.14
6 -0.29
7 -0.3

> <PUBCHEM_EFFECTIVE_ROTOR_COUNT>
3

> <PUBCHEM_PHARMACOPHORE_FEATURES>
4
1 4 hydrophobe
1 5 hydrophobe
1 7 hydrophobe
4 1 2 3 6 hydrophobe

> <PUBCHEM_HEAVY_ATOM_COUNT>
7

> <PUBCHEM_ATOM_DEF_STEREO_COUNT>
0

> <PUBCHEM_ATOM_UDEF_STEREO_COUNT>
1

> <PUBCHEM_BOND_DEF_STEREO_COUNT>
0

> <PUBCHEM_BOND_UDEF_STEREO_COUNT>
0

> <PUBCHEM_ISOTOPIC_ATOM_COUNT>
0

> <PUBCHEM_COMPONENT_COUNT>
1

> <PUBCHEM_CACTVS_TAUTO_COUNT>
1

> <PUBCHEM_CONFORMER_ID>
00004C8500000001

> <PUBCHEM_MMFF94_ENERGY>
3.5905

> <PUBCHEM_FEATURE_SELFOVERLAP>
20.462

> <PUBCHEM_SHAPE_FINGERPRINT>
100427 49 17766555029375217161
20096714 4 18054789490045764364
21040471 1 18265342698321065028
23552449 1 18339637970299142308
23552449 11 17400933388704372339
24536 1 18338785789011579654
5084963 1 18057598768019241624
54338 74 18261944266867395145
5943 1 17169577265712078415

> <PUBCHEM_SHAPE_MULTIPOLES>
144.06
2.66
1.88
0.83
1.78
0.17
-0.07
0.63
0.44
-1.17
0.12
0.01
-0.06
0.18

> <PUBCHEM_SHAPE_SELFOVERLAP>
252.451

> <PUBCHEM_SHAPE_VOLUME>
96.2

> <PUBCHEM_COORDINATE_TYPE>
2
5
10

$$$$
