38039
  -OEChem-03192123173D

 22 23  0     0  0  0  0  0  0999 V2000
   -3.5692   -2.2604    0.3732 Cl  0  0  0  0  0  0  0  0  0  0  0  0
   -4.9648    0.6211   -0.0945 Cl  0  0  0  0  0  0  0  0  0  0  0  0
    5.4738   -0.2393    0.0291 Cl  0  0  0  0  0  0  0  0  0  0  0  0
   -0.4664    0.2108   -0.0332 C   0  0  0  0  0  0  0  0  0  0  0  0
    0.9763    0.1010   -0.0171 C   0  0  0  0  0  0  0  0  0  0  0  0
   -1.2550   -0.9247    0.1525 C   0  0  0  0  0  0  0  0  0  0  0  0
   -1.0684    1.4528   -0.2346 C   0  0  0  0  0  0  0  0  0  0  0  0
    1.7524    1.1747    0.4192 C   0  0  0  0  0  0  0  0  0  0  0  0
    1.5909   -1.0781   -0.4387 C   0  0  0  0  0  0  0  0  0  0  0  0
   -2.6457   -0.8181    0.1368 C   0  0  0  0  0  0  0  0  0  0  0  0
   -2.4590    1.5595   -0.2503 C   0  0  0  0  0  0  0  0  0  0  0  0
    3.1432    1.0694    0.4337 C   0  0  0  0  0  0  0  0  0  0  0  0
    2.9817   -1.1833   -0.4239 C   0  0  0  0  0  0  0  0  0  0  0  0
   -3.2477    0.4240   -0.0645 C   0  0  0  0  0  0  0  0  0  0  0  0
    3.7578   -0.1096    0.0123 C   0  0  0  0  0  0  0  0  0  0  0  0
   -0.8134   -1.9000    0.3431 H   0  0  0  0  0  0  0  0  0  0  0  0
   -0.4960    2.3587   -0.4143 H   0  0  0  0  0  0  0  0  0  0  0  0
    1.3178    2.1008    0.7854 H   0  0  0  0  0  0  0  0  0  0  0  0
    1.0300   -1.9285   -0.8166 H   0  0  0  0  0  0  0  0  0  0  0  0
   -2.9119    2.5340   -0.4153 H   0  0  0  0  0  0  0  0  0  0  0  0
    3.7357    1.9115    0.7823 H   0  0  0  0  0  0  0  0  0  0  0  0
    3.4478   -2.1054   -0.7618 H   0  0  0  0  0  0  0  0  0  0  0  0
  1 10  1  0  0  0  0
  2 14  1  0  0  0  0
  3 15  1  0  0  0  0
  4  5  1  0  0  0  0
  4  6  2  0  0  0  0
  4  7  1  0  0  0  0
  5  8  2  0  0  0  0
  5  9  1  0  0  0  0
  6 10  1  0  0  0  0
  6 16  1  0  0  0  0
  7 11  2  0  0  0  0
  7 17  1  0  0  0  0
  8 12  1  0  0  0  0
  8 18  1  0  0  0  0
  9 13  2  0  0  0  0
  9 19  1  0  0  0  0
 10 14  2  0  0  0  0
 11 14  1  0  0  0  0
 11 20  1  0  0  0  0
 12 15  2  0  0  0  0
 12 21  1  0  0  0  0
 13 15  1  0  0  0  0
 13 22  1  0  0  0  0
M  END
> <PUBCHEM_COMPOUND_CID>
38039

> <PUBCHEM_CONFORMER_RMSD>
0.4

> <PUBCHEM_CONFORMER_DIVERSEORDER>
1
2

> <PUBCHEM_MMFF94_PARTIAL_CHARGES>
20
1 -0.18
10 0.18
11 -0.15
12 -0.15
13 -0.15
14 0.18
15 0.18
16 0.15
17 0.15
18 0.15
19 0.15
2 -0.18
20 0.15
21 0.15
22 0.15
3 -0.18
6 -0.15
7 -0.15
8 -0.15
9 -0.15

> <PUBCHEM_EFFECTIVE_ROTOR_COUNT>
1

> <PUBCHEM_PHARMACOPHORE_FEATURES>
2
6 4 6 7 10 11 14 rings
6 5 8 9 12 13 15 rings

> <PUBCHEM_HEAVY_ATOM_COUNT>
15

> <PUBCHEM_ATOM_DEF_STEREO_COUNT>
0

> <PUBCHEM_ATOM_UDEF_STEREO_COUNT>
0

> <PUBCHEM_BOND_DEF_STEREO_COUNT>
0

> <PUBCHEM_BOND_UDEF_STEREO_COUNT>
0

> <PUBCHEM_ISOTOPIC_ATOM_COUNT>
0

> <PUBCHEM_COMPONENT_COUNT>
1

> <PUBCHEM_CACTVS_TAUTO_COUNT>
1

> <PUBCHEM_CONFORMER_ID>
0000949700000001

> <PUBCHEM_MMFF94_ENERGY>
44.0615

> <PUBCHEM_FEATURE_SELFOVERLAP>
10.149

> <PUBCHEM_SHAPE_FINGERPRINT>
10608611 8 18412539907774035128
10616163 171 18410294730731569367
11132069 177 18408038528913476729
11471102 20 18273493459959867556
11615757 297 17275105054498147704
12032990 46 18411140280905534098
12236239 1 16732703835265374908
12500047 106 18334570196932304637
13214271 11 18413386562023938783
13288520 33 18410295800473182142
13296908 3 18410576223066977603
13675066 3 18059850688788252506
13760787 19 18113617872201044602
14252887 29 17275394183750184078
15196674 1 18338797917835667192
15219456 202 18342738537244320321
15309172 13 17132119056216275455
15375358 24 18413670197327033639
16945 1 18262794069444676365
17804303 29 18411703213689746088
17834074 16 18412829079210554574
18175812 5 18413388760772874693
18186145 218 15792011233246006837
18522853 276 18272931600907209512
19141452 34 18342181098546647779
200 152 17561077003896841077
20201158 50 18343021064535595174
20279233 1 18341899575528543111
20510252 161 18270117890733471105
20528008 55 18413385432447520173
20645477 56 18334293133161540893
20645477 70 17631453371731503734
21267235 1 18411145731203299350
221490 88 18338803424189397650
22485316 2 18334574629201533802
23175994 123 17418096516105534584
23402539 116 18259980496129473846
23402655 69 18201149941243377845
23557571 272 18412550920175209541
23559900 14 18411132545980774328
26918003 58 18344144791146671306
2871803 45 18335695096069997815
3312278 4 18412546491842400787
34934 24 18335134263735634179
3545911 37 18411138021773893845
4214541 1 18410293601138794121
474 4 16154851222064995500
5104073 3 18411980299394445552
69090 78 18342734105339315351
7364860 26 18194398896941598442
77779 3 18410294718146730696
8809292 202 18335423486437688683
9709674 26 18342461396048302431

> <PUBCHEM_SHAPE_MULTIPOLES>
314.3
9.75
1.77
0.69
3.47
0.41
0
0.88
-0.19
-1.38
-0.07
0.06
0.02
0.65

> <PUBCHEM_SHAPE_SELFOVERLAP>
655.074

> <PUBCHEM_SHAPE_VOLUME>
171.1

> <PUBCHEM_COORDINATE_TYPE>
2
5
10

$$$$
