610169
  -OEChem-03212100483D

 14 14  0     0  0  0  0  0  0999 V2000
    3.3738   -0.5243   -0.0005 Br  0  0  0  0  0  0  0  0  0  0  0  0
   -1.9476   -2.0183   -0.0001 Cl  0  0  0  0  0  0  0  0  0  0  0  0
   -2.5329    0.9681   -0.0003 N   0  0  0  0  0  0  0  0  0  0  0  0
   -1.1696    0.5973    0.0000 C   0  0  0  0  0  0  0  0  0  0  0  0
   -0.7825   -0.7429    0.0001 C   0  0  0  0  0  0  0  0  0  0  0  0
   -0.2027    1.6026    0.0000 C   0  0  0  0  0  0  0  0  0  0  0  0
    0.5716   -1.0778    0.0003 C   0  0  0  0  0  0  0  0  0  0  0  0
    1.1513    1.2678    0.0002 C   0  0  0  0  0  0  0  0  0  0  0  0
    1.5386   -0.0723    0.0003 C   0  0  0  0  0  0  0  0  0  0  0  0
   -0.4900    2.6510   -0.0001 H   0  0  0  0  0  0  0  0  0  0  0  0
    0.8737   -2.1230    0.0003 H   0  0  0  0  0  0  0  0  0  0  0  0
    1.8921    2.0632    0.0000 H   0  0  0  0  0  0  0  0  0  0  0  0
   -2.7945    1.9449    0.0003 H   0  0  0  0  0  0  0  0  0  0  0  0
   -3.2474    0.2522    0.0004 H   0  0  0  0  0  0  0  0  0  0  0  0
  1  9  1  0  0  0  0
  2  5  1  0  0  0  0
  3  4  1  0  0  0  0
  3 13  1  0  0  0  0
  3 14  1  0  0  0  0
  4  5  2  0  0  0  0
  4  6  1  0  0  0  0
  5  7  1  0  0  0  0
  6  8  2  0  0  0  0
  6 10  1  0  0  0  0
  7  9  2  0  0  0  0
  7 11  1  0  0  0  0
  8  9  1  0  0  0  0
  8 12  1  0  0  0  0
M  END
> <PUBCHEM_COMPOUND_CID>
610169

> <PUBCHEM_CONFORMER_RMSD>
0.4

> <PUBCHEM_CONFORMER_DIVERSEORDER>
1

> <PUBCHEM_MMFF94_PARTIAL_CHARGES>
14
1 -0.11
10 0.15
11 0.15
12 0.15
13 0.4
14 0.4
2 -0.18
3 -0.9
4 0.1
5 0.18
6 -0.15
7 -0.15
8 -0.15
9 0.11

> <PUBCHEM_EFFECTIVE_ROTOR_COUNT>
0

> <PUBCHEM_PHARMACOPHORE_FEATURES>
4
1 1 hydrophobe
1 3 cation
1 3 donor
6 4 5 6 7 8 9 rings

> <PUBCHEM_HEAVY_ATOM_COUNT>
9

> <PUBCHEM_ATOM_DEF_STEREO_COUNT>
0

> <PUBCHEM_ATOM_UDEF_STEREO_COUNT>
0

> <PUBCHEM_BOND_DEF_STEREO_COUNT>
0

> <PUBCHEM_BOND_UDEF_STEREO_COUNT>
0

> <PUBCHEM_ISOTOPIC_ATOM_COUNT>
0

> <PUBCHEM_COMPONENT_COUNT>
1

> <PUBCHEM_CACTVS_TAUTO_COUNT>
1

> <PUBCHEM_CONFORMER_ID>
00094F7900000001

> <PUBCHEM_MMFF94_ENERGY>
28.9961

> <PUBCHEM_FEATURE_SELFOVERLAP>
20.297

> <PUBCHEM_SHAPE_FINGERPRINT>
12423570 1 14961133712455624222
14128692 85 18337115678082929310
15310529 11 16588304917449955976
16945 1 18338797810435162980
193761 8 18194682798279035845
20871998 184 18201720669345564566
21040471 1 18338798892629791009
23235685 24 18268423551392955336
23402655 69 17906714927146755245
23552423 10 18188211025956971710
2748010 2 18339356495438599708
5084963 1 18200599231809379154
68250623 7 18264781032583944606

> <PUBCHEM_SHAPE_MULTIPOLES>
188.05
3.86
1.91
0.63
2.16
0.16
0
1.03
0
-0.96
0
0.06
0.03
0

> <PUBCHEM_SHAPE_SELFOVERLAP>
367.007

> <PUBCHEM_SHAPE_VOLUME>
118.1

> <PUBCHEM_COORDINATE_TYPE>
2
5
10

$$$$
