19859
  -OEChem-03212100483D

 13 13  0     0  0  0  0  0  0999 V2000
    3.3670   -0.5407    0.0003 Br  0  0  0  0  0  0  0  0  0  0  0  0
   -1.9714   -1.9960    0.0001 Cl  0  0  0  0  0  0  0  0  0  0  0  0
   -2.4850    0.9655   -0.0001 O   0  0  0  0  0  0  0  0  0  0  0  0
   -1.1709    0.6032    0.0002 C   0  0  0  0  0  0  0  0  0  0  0  0
   -0.7902   -0.7388    0.0000 C   0  0  0  0  0  0  0  0  0  0  0  0
   -0.1992    1.6038    0.0002 C   0  0  0  0  0  0  0  0  0  0  0  0
    0.5623   -1.0802   -0.0002 C   0  0  0  0  0  0  0  0  0  0  0  0
    1.1532    1.2626   -0.0001 C   0  0  0  0  0  0  0  0  0  0  0  0
    1.5341   -0.0794   -0.0003 C   0  0  0  0  0  0  0  0  0  0  0  0
   -0.4888    2.6512    0.0003 H   0  0  0  0  0  0  0  0  0  0  0  0
    0.8585   -2.1270   -0.0003 H   0  0  0  0  0  0  0  0  0  0  0  0
    1.8978    2.0545   -0.0001 H   0  0  0  0  0  0  0  0  0  0  0  0
   -3.0244    0.1558   -0.0002 H   0  0  0  0  0  0  0  0  0  0  0  0
  1  9  1  0  0  0  0
  2  5  1  0  0  0  0
  3  4  1  0  0  0  0
  3 13  1  0  0  0  0
  4  5  2  0  0  0  0
  4  6  1  0  0  0  0
  5  7  1  0  0  0  0
  6  8  2  0  0  0  0
  6 10  1  0  0  0  0
  7  9  2  0  0  0  0
  7 11  1  0  0  0  0
  8  9  1  0  0  0  0
  8 12  1  0  0  0  0
M  END
> <PUBCHEM_COMPOUND_CID>
19859

> <PUBCHEM_CONFORMER_RMSD>
0.4

> <PUBCHEM_CONFORMER_DIVERSEORDER>
1

> <PUBCHEM_MMFF94_PARTIAL_CHARGES>
13
1 -0.11
10 0.15
11 0.15
12 0.15
13 0.45
2 -0.18
3 -0.53
4 0.08
5 0.18
6 -0.15
7 -0.15
8 -0.15
9 0.11

> <PUBCHEM_EFFECTIVE_ROTOR_COUNT>
0

> <PUBCHEM_PHARMACOPHORE_FEATURES>
3
1 1 hydrophobe
1 3 donor
6 4 5 6 7 8 9 rings

> <PUBCHEM_HEAVY_ATOM_COUNT>
9

> <PUBCHEM_ATOM_DEF_STEREO_COUNT>
0

> <PUBCHEM_ATOM_UDEF_STEREO_COUNT>
0

> <PUBCHEM_BOND_DEF_STEREO_COUNT>
0

> <PUBCHEM_BOND_UDEF_STEREO_COUNT>
0

> <PUBCHEM_ISOTOPIC_ATOM_COUNT>
0

> <PUBCHEM_COMPONENT_COUNT>
1

> <PUBCHEM_CACTVS_TAUTO_COUNT>
3

> <PUBCHEM_CONFORMER_ID>
00004D9300000001

> <PUBCHEM_MMFF94_ENERGY>
17.4305

> <PUBCHEM_FEATURE_SELFOVERLAP>
15.223

> <PUBCHEM_SHAPE_FINGERPRINT>
10857977 72 18341037606084203626
14128692 85 18337115678082935812
15310529 11 16588304917460511984
16945 1 18338516335426803812
193761 8 18194682793978787301
20871998 184 18201720669335021558
21040471 1 18338798888324274209
23235685 24 18268423547097994536
23402655 69 17906714927141486989
23552423 10 18188211021662010902
2748010 2 18339356495433311964
5084963 1 18200598132303026130
68250623 7 18264779928882877068

> <PUBCHEM_SHAPE_MULTIPOLES>
187.16
3.82
1.9
0.63
2.14
0.11
0
1.13
0
-0.92
0
0.07
0.03
0

> <PUBCHEM_SHAPE_SELFOVERLAP>
366.507

> <PUBCHEM_SHAPE_VOLUME>
117.2

> <PUBCHEM_COORDINATE_TYPE>
2
5
10

$$$$
