138117
  -OEChem-03192122533D

 32 31  0     0  0  0  0  0  0999 V2000
    1.7727   -0.4081   -0.0153 C   0  0  0  0  0  0  0  0  0  0  0  0
    0.3557   -0.3890   -0.6541 C   0  0  0  0  0  0  0  0  0  0  0  0
    2.1128    0.8956    0.7568 C   0  0  0  0  0  0  0  0  0  0  0  0
   -0.8116   -0.1929    0.3228 C   0  0  0  0  0  0  0  0  0  0  0  0
    1.8954   -1.5910    0.9685 C   0  0  0  0  0  0  0  0  0  0  0  0
    2.8000   -0.6348   -1.1452 C   0  0  0  0  0  0  0  0  0  0  0  0
   -2.1475   -0.1351   -0.4256 C   0  0  0  0  0  0  0  0  0  0  0  0
    2.0453    2.1828   -0.0561 C   0  0  0  0  0  0  0  0  0  0  0  0
   -3.3486    0.0942    0.4946 C   0  0  0  0  0  0  0  0  0  0  0  0
   -4.6742    0.1782   -0.2462 C   0  0  0  0  0  0  0  0  0  0  0  0
    0.1970   -1.3343   -1.1915 H   0  0  0  0  0  0  0  0  0  0  0  0
    0.3127    0.3957   -1.4203 H   0  0  0  0  0  0  0  0  0  0  0  0
    1.4499    0.9997    1.6242 H   0  0  0  0  0  0  0  0  0  0  0  0
    3.1272    0.8125    1.1697 H   0  0  0  0  0  0  0  0  0  0  0  0
   -0.8446   -1.0137    1.0470 H   0  0  0  0  0  0  0  0  0  0  0  0
   -0.6838    0.7377    0.8853 H   0  0  0  0  0  0  0  0  0  0  0  0
    2.9242   -1.6950    1.3325 H   0  0  0  0  0  0  0  0  0  0  0  0
    1.6171   -2.5363    0.4891 H   0  0  0  0  0  0  0  0  0  0  0  0
    1.2544   -1.4574    1.8460 H   0  0  0  0  0  0  0  0  0  0  0  0
    2.7159    0.1249   -1.9291 H   0  0  0  0  0  0  0  0  0  0  0  0
    3.8257   -0.6089   -0.7603 H   0  0  0  0  0  0  0  0  0  0  0  0
    2.6507   -1.6102   -1.6227 H   0  0  0  0  0  0  0  0  0  0  0  0
   -2.2935   -1.0705   -0.9799 H   0  0  0  0  0  0  0  0  0  0  0  0
   -2.1107    0.6711   -1.1689 H   0  0  0  0  0  0  0  0  0  0  0  0
    2.3096    3.0349    0.5793 H   0  0  0  0  0  0  0  0  0  0  0  0
    1.0389    2.3636   -0.4435 H   0  0  0  0  0  0  0  0  0  0  0  0
    2.7468    2.1706   -0.8948 H   0  0  0  0  0  0  0  0  0  0  0  0
   -3.2011    1.0226    1.0593 H   0  0  0  0  0  0  0  0  0  0  0  0
   -3.4034   -0.7185    1.2286 H   0  0  0  0  0  0  0  0  0  0  0  0
   -5.4948    0.3416    0.4593 H   0  0  0  0  0  0  0  0  0  0  0  0
   -4.6694    1.0064   -0.9619 H   0  0  0  0  0  0  0  0  0  0  0  0
   -4.8741   -0.7481   -0.7940 H   0  0  0  0  0  0  0  0  0  0  0  0
  1  2  1  0  0  0  0
  1  3  1  0  0  0  0
  1  5  1  0  0  0  0
  1  6  1  0  0  0  0
  2  4  1  0  0  0  0
  2 11  1  0  0  0  0
  2 12  1  0  0  0  0
  3  8  1  0  0  0  0
  3 13  1  0  0  0  0
  3 14  1  0  0  0  0
  4  7  1  0  0  0  0
  4 15  1  0  0  0  0
  4 16  1  0  0  0  0
  5 17  1  0  0  0  0
  5 18  1  0  0  0  0
  5 19  1  0  0  0  0
  6 20  1  0  0  0  0
  6 21  1  0  0  0  0
  6 22  1  0  0  0  0
  7  9  1  0  0  0  0
  7 23  1  0  0  0  0
  7 24  1  0  0  0  0
  8 25  1  0  0  0  0
  8 26  1  0  0  0  0
  8 27  1  0  0  0  0
  9 10  1  0  0  0  0
  9 28  1  0  0  0  0
  9 29  1  0  0  0  0
 10 30  1  0  0  0  0
 10 31  1  0  0  0  0
 10 32  1  0  0  0  0
M  END
> <PUBCHEM_COMPOUND_CID>
138117

> <PUBCHEM_CONFORMER_RMSD>
0.6

> <PUBCHEM_CONFORMER_DIVERSEORDER>
1
19
11
18
16
17
12
28
33
21
30
3
32
5
34
20
8
22
9
14
10
31
7
15
29
35
6
13
2
24
25
27
26
23
4

> <PUBCHEM_MMFF94_PARTIAL_CHARGES>
0

> <PUBCHEM_EFFECTIVE_ROTOR_COUNT>
5

> <PUBCHEM_PHARMACOPHORE_FEATURES>
5
1 10 hydrophobe
1 8 hydrophobe
3 1 2 3 hydrophobe
3 1 5 6 hydrophobe
3 4 7 9 hydrophobe

> <PUBCHEM_HEAVY_ATOM_COUNT>
10

> <PUBCHEM_ATOM_DEF_STEREO_COUNT>
0

> <PUBCHEM_ATOM_UDEF_STEREO_COUNT>
0

> <PUBCHEM_BOND_DEF_STEREO_COUNT>
0

> <PUBCHEM_BOND_UDEF_STEREO_COUNT>
0

> <PUBCHEM_ISOTOPIC_ATOM_COUNT>
0

> <PUBCHEM_COMPONENT_COUNT>
1

> <PUBCHEM_CACTVS_TAUTO_COUNT>
1

> <PUBCHEM_CONFORMER_ID>
00021B8500000001

> <PUBCHEM_MMFF94_ENERGY>
11.4147

> <PUBCHEM_FEATURE_SELFOVERLAP>
27.98

> <PUBCHEM_SHAPE_FINGERPRINT>
11062470 55 14707215417941707639
12162725 195 18131072610886605417
12932764 1 18261106370561898943
14325111 11 18272369802221093303
14344429 50 18409448077066182638
170605 34 18270118044977370384
18186145 218 18411982447247240787
190213 19 17489867129345517655
20606313 2 18343300392218893233
20645477 70 18341892983228718495
20871998 22 18126280836139187286
212847 35 17968658199276563149
21524375 3 17908692183638477528
230 275 18411130363973948704
23380061 81 17988652890972815371
3248919 1 17704068495574150143
449060 62 18340207487527006793

> <PUBCHEM_SHAPE_MULTIPOLES>
205.8
6.78
1.51
1
9.77
0.67
0.04
0.53
0.41
-1.75
-0.22
-0.52
-0.2
0.04

> <PUBCHEM_SHAPE_SELFOVERLAP>
366.669

> <PUBCHEM_SHAPE_VOLUME>
137

> <PUBCHEM_COORDINATE_TYPE>
2
5
10

$$$$
