63104
  -OEChem-03192123023D

 22 23  0     0  0  0  0  0  0999 V2000
   -3.7434    2.1155    0.7592 Cl  0  0  0  0  0  0  0  0  0  0  0  0
    3.5572    2.8059   -0.4773 Cl  0  0  0  0  0  0  0  0  0  0  0  0
    3.9851   -2.4766    0.5421 Cl  0  0  0  0  0  0  0  0  0  0  0  0
   -5.1052   -0.6596   -0.1969 Cl  0  0  0  0  0  0  0  0  0  0  0  0
   -0.6119   -0.2100   -0.0689 C   0  0  0  0  0  0  0  0  0  0  0  0
    0.8293   -0.0867   -0.0351 C   0  0  0  0  0  0  0  0  0  0  0  0
   -1.4138    0.8664    0.3106 C   0  0  0  0  0  0  0  0  0  0  0  0
   -1.1994   -1.4061   -0.4812 C   0  0  0  0  0  0  0  0  0  0  0  0
    1.6200   -1.2096    0.2088 C   0  0  0  0  0  0  0  0  0  0  0  0
    1.4285    1.1551   -0.2468 C   0  0  0  0  0  0  0  0  0  0  0  0
   -2.8031    0.7468    0.2777 C   0  0  0  0  0  0  0  0  0  0  0  0
   -2.5887   -1.5258   -0.5140 C   0  0  0  0  0  0  0  0  0  0  0  0
    2.8179    1.2739   -0.2144 C   0  0  0  0  0  0  0  0  0  0  0  0
    3.0095   -1.0909    0.2412 C   0  0  0  0  0  0  0  0  0  0  0  0
   -3.3905   -0.4493   -0.1346 C   0  0  0  0  0  0  0  0  0  0  0  0
    3.6084    0.1509    0.0296 C   0  0  0  0  0  0  0  0  0  0  0  0
   -0.9842    1.7994    0.6674 H   0  0  0  0  0  0  0  0  0  0  0  0
   -0.6170   -2.2600   -0.8160 H   0  0  0  0  0  0  0  0  0  0  0  0
    1.1832   -2.1851    0.4087 H   0  0  0  0  0  0  0  0  0  0  0  0
    0.8427    2.0431   -0.4719 H   0  0  0  0  0  0  0  0  0  0  0  0
   -3.0302   -2.4627   -0.8444 H   0  0  0  0  0  0  0  0  0  0  0  0
    4.6921    0.2436    0.0546 H   0  0  0  0  0  0  0  0  0  0  0  0
  1 11  1  0  0  0  0
  2 13  1  0  0  0  0
  3 14  1  0  0  0  0
  4 15  1  0  0  0  0
  5  6  1  0  0  0  0
  5  7  2  0  0  0  0
  5  8  1  0  0  0  0
  6  9  2  0  0  0  0
  6 10  1  0  0  0  0
  7 11  1  0  0  0  0
  7 17  1  0  0  0  0
  8 12  2  0  0  0  0
  8 18  1  0  0  0  0
  9 14  1  0  0  0  0
  9 19  1  0  0  0  0
 10 13  2  0  0  0  0
 10 20  1  0  0  0  0
 11 15  2  0  0  0  0
 12 15  1  0  0  0  0
 12 21  1  0  0  0  0
 13 16  1  0  0  0  0
 14 16  2  0  0  0  0
 16 22  1  0  0  0  0
M  END
> <PUBCHEM_COMPOUND_CID>
63104

> <PUBCHEM_CONFORMER_RMSD>
0.6

> <PUBCHEM_CONFORMER_DIVERSEORDER>
1
2

> <PUBCHEM_MMFF94_PARTIAL_CHARGES>
20
1 -0.18
10 -0.15
11 0.18
12 -0.15
13 0.18
14 0.18
15 0.18
16 -0.15
17 0.15
18 0.15
19 0.15
2 -0.18
20 0.15
21 0.15
22 0.15
3 -0.18
4 -0.18
7 -0.15
8 -0.15
9 -0.15

> <PUBCHEM_EFFECTIVE_ROTOR_COUNT>
1

> <PUBCHEM_PHARMACOPHORE_FEATURES>
2
6 5 7 8 11 12 15 rings
6 6 9 10 13 14 16 rings

> <PUBCHEM_HEAVY_ATOM_COUNT>
16

> <PUBCHEM_ATOM_DEF_STEREO_COUNT>
0

> <PUBCHEM_ATOM_UDEF_STEREO_COUNT>
0

> <PUBCHEM_BOND_DEF_STEREO_COUNT>
0

> <PUBCHEM_BOND_UDEF_STEREO_COUNT>
0

> <PUBCHEM_ISOTOPIC_ATOM_COUNT>
0

> <PUBCHEM_COMPONENT_COUNT>
1

> <PUBCHEM_CACTVS_TAUTO_COUNT>
1

> <PUBCHEM_CONFORMER_ID>
0000F68000000001

> <PUBCHEM_MMFF94_ENERGY>
44.8981

> <PUBCHEM_FEATURE_SELFOVERLAP>
10.149

> <PUBCHEM_SHAPE_FINGERPRINT>
10062212 137 18272643503143649759
10465860 228 18408889546761034152
10608611 8 18410009948582249773
10616163 171 18270120243890447534
11471102 20 18334572456137901742
12107183 9 17979356361029947617
12173636 292 18201152239161267813
12251169 10 18411697677603599574
12916754 54 18335136471359127031
13140716 1 18411420566176323513
13167823 11 18411418401776835963
13533116 47 18410009953299210323
13583140 156 17606130476851884129
13760787 5 18412821409174378703
14144814 61 18411981355771737675
14289901 80 18339642342565293971
14739800 52 17917135213343315328
15042514 8 17471287354411033474
15196674 1 18411981334513230961
15342168 16 17606404503811906796
15442244 35 18339079285533089064
15536298 74 18413388748257127262
15669948 3 17916864750192830399
17492 89 18411419514052598459
1813 80 17751083518573791574
18186145 218 17531245041237165354
19422 9 18411138026153354667
200 152 18342729724594005735
201361 129 18409171047502156932
20279233 1 16081083800950124993
20510252 161 18060707173939189609
20559304 39 18413105070014967344
20645477 70 18334852818502175158
21267235 1 18411990156154809694
21501502 16 18412825797860600804
221490 88 18334583481366787266
2255824 54 18334295366692305698
22854114 111 18335703875109472060
23366157 5 18113618997862050260
23402539 116 18131058326189181111
23402655 69 18411418427266974164
23463225 33 18411980239238645710
23532345 12 18271524191479132634
23557571 272 17131838646386055705
23559900 14 18343013368281417378
23598291 2 18336549317635428484
312423 11 18410022017640473731
335352 9 18195246607225624461
3545911 37 18335139851055355357
4214541 1 18411699846757106945
4409770 3 17177983822881470980
474 4 17969224619331710972
5104073 3 18412263908948796819
53777708 50 18411983584833481490
57096353 35 18197495336137745229
58051976 100 18410014316743065239
603831 33 18128245890555021790
67856867 119 18339350972464124040
7364860 26 18411417332772714126
77779 3 18410013243138326067
7832392 63 18412265017208847616
84936 182 18270399533261450648
9709674 26 18412832373635587255
9981440 41 17904195185491892776

> <PUBCHEM_SHAPE_MULTIPOLES>
336.75
9.19
2.59
0.76
3.67
0.76
-0.02
-0.06
-0.39
-2.3
-0.06
0.09
0.04
-1.5

> <PUBCHEM_SHAPE_SELFOVERLAP>
694.008

> <PUBCHEM_SHAPE_VOLUME>
187.3

> <PUBCHEM_COORDINATE_TYPE>
2
5
10

$$$$
