121948
  -OEChem-03192121593D

 75 78  0     1  0  0  0  0  0999 V2000
    7.8135    1.5187   -0.6138 O   0  0  0  0  0  0  0  0  0  0  0  0
   -7.2421   -0.4455   -0.3620 O   0  0  0  0  0  0  0  0  0  0  0  0
   -0.4975   -1.1205    0.0151 C   0  0  1  0  0  0  0  0  0  0  0  0
    0.1936   -0.2164    1.0552 C   0  0  2  0  0  0  0  0  0  0  0  0
    1.7202   -0.3444    1.0499 C   0  0  1  0  0  0  0  0  0  0  0  0
    2.2658    0.0006   -0.3664 C   0  0  1  0  0  0  0  0  0  0  0  0
   -1.9742   -0.7872    0.3391 C   0  0  2  0  0  0  0  0  0  0  0  0
   -0.0263   -0.6685   -1.3742 C   0  0  0  0  0  0  0  0  0  0  0  0
    3.8381   -0.1547   -0.4345 C   0  0  2  0  0  0  0  0  0  0  0  0
   -0.5640   -0.5057    2.3475 C   0  0  0  0  0  0  0  0  0  0  0  0
    1.5054   -0.7411   -1.5003 C   0  0  0  0  0  0  0  0  0  0  0  0
   -2.0116   -0.7561    1.8853 C   0  0  0  0  0  0  0  0  0  0  0  0
    2.3477    0.5855    2.0991 C   0  0  0  0  0  0  0  0  0  0  0  0
   -3.0274   -1.7080   -0.2602 C   0  0  1  0  0  0  0  0  0  0  0  0
   -0.2114   -2.6311    0.2034 C   0  0  0  0  0  0  0  0  0  0  0  0
    4.5018    0.4639    0.8039 C   0  0  0  0  0  0  0  0  0  0  0  0
    4.3466    0.5847   -1.7082 C   0  0  0  0  0  0  0  0  0  0  0  0
    3.8157    0.7966    1.9111 C   0  0  0  0  0  0  0  0  0  0  0  0
    4.2540   -1.6437   -0.5061 C   0  0  0  0  0  0  0  0  0  0  0  0
    5.9927    0.7036    0.7405 C   0  0  0  0  0  0  0  0  0  0  0  0
    5.8634    0.7573   -1.7728 C   0  0  0  0  0  0  0  0  0  0  0  0
   -4.4645   -1.2825    0.1060 C   0  0  0  0  0  0  0  0  0  0  0  0
    6.3936    1.4557   -0.5255 C   0  0  2  0  0  0  0  0  0  0  0  0
   -2.8804   -1.7490   -1.7862 C   0  0  0  0  0  0  0  0  0  0  0  0
   -4.9018    0.0877   -0.4225 C   0  0  0  0  0  0  0  0  0  0  0  0
   -6.2977    0.5623    0.0110 C   0  0  1  0  0  0  0  0  0  0  0  0
   -6.7496    1.9148   -0.5850 C   0  0  0  0  0  0  0  0  0  0  0  0
   -8.1795    2.2475   -0.1410 C   0  0  0  0  0  0  0  0  0  0  0  0
   -5.8240    3.0756   -0.2082 C   0  0  0  0  0  0  0  0  0  0  0  0
   -0.0317    0.8334    0.8008 H   0  0  0  0  0  0  0  0  0  0  0  0
    1.9990   -1.3717    1.3100 H   0  0  0  0  0  0  0  0  0  0  0  0
    2.0437    1.0694   -0.5201 H   0  0  0  0  0  0  0  0  0  0  0  0
   -2.1555    0.2385   -0.0104 H   0  0  0  0  0  0  0  0  0  0  0  0
   -0.3463    0.3632   -1.5685 H   0  0  0  0  0  0  0  0  0  0  0  0
   -0.4287   -1.2792   -2.1825 H   0  0  0  0  0  0  0  0  0  0  0  0
   -0.5100    0.3318    3.0504 H   0  0  0  0  0  0  0  0  0  0  0  0
   -0.1668   -1.3914    2.8559 H   0  0  0  0  0  0  0  0  0  0  0  0
    1.7971   -1.7949   -1.5328 H   0  0  0  0  0  0  0  0  0  0  0  0
    1.7854   -0.3159   -2.4708 H   0  0  0  0  0  0  0  0  0  0  0  0
   -2.3743   -1.6983    2.3115 H   0  0  0  0  0  0  0  0  0  0  0  0
   -2.6752    0.0415    2.2375 H   0  0  0  0  0  0  0  0  0  0  0  0
    2.1780    0.1642    3.0975 H   0  0  0  0  0  0  0  0  0  0  0  0
    1.8620    1.5692    2.0841 H   0  0  0  0  0  0  0  0  0  0  0  0
   -2.9012   -2.7288    0.1219 H   0  0  0  0  0  0  0  0  0  0  0  0
   -0.6540   -3.2295   -0.5984 H   0  0  0  0  0  0  0  0  0  0  0  0
    0.8579   -2.8590    0.1998 H   0  0  0  0  0  0  0  0  0  0  0  0
   -0.6078   -3.0152    1.1488 H   0  0  0  0  0  0  0  0  0  0  0  0
    3.8924    1.5838   -1.7586 H   0  0  0  0  0  0  0  0  0  0  0  0
    4.0242    0.0539   -2.6119 H   0  0  0  0  0  0  0  0  0  0  0  0
    4.3383    1.2515    2.7493 H   0  0  0  0  0  0  0  0  0  0  0  0
    3.9395   -2.1069   -1.4468 H   0  0  0  0  0  0  0  0  0  0  0  0
    5.3397   -1.7760   -0.4518 H   0  0  0  0  0  0  0  0  0  0  0  0
    3.8243   -2.2258    0.3157 H   0  0  0  0  0  0  0  0  0  0  0  0
    6.3482    1.2663    1.6135 H   0  0  0  0  0  0  0  0  0  0  0  0
    6.5234   -0.2556    0.7894 H   0  0  0  0  0  0  0  0  0  0  0  0
    6.3578   -0.2133   -1.9032 H   0  0  0  0  0  0  0  0  0  0  0  0
    6.1325    1.3411   -2.6619 H   0  0  0  0  0  0  0  0  0  0  0  0
   -4.5841   -1.2968    1.1959 H   0  0  0  0  0  0  0  0  0  0  0  0
   -5.1568   -2.0447   -0.2749 H   0  0  0  0  0  0  0  0  0  0  0  0
    6.0146    2.4844   -0.4914 H   0  0  0  0  0  0  0  0  0  0  0  0
   -3.7947   -2.1437   -2.2464 H   0  0  0  0  0  0  0  0  0  0  0  0
   -2.7053   -0.7596   -2.2200 H   0  0  0  0  0  0  0  0  0  0  0  0
   -2.0932   -2.4379   -2.0983 H   0  0  0  0  0  0  0  0  0  0  0  0
   -4.8776    0.0634   -1.5188 H   0  0  0  0  0  0  0  0  0  0  0  0
   -4.1789    0.8429   -0.1035 H   0  0  0  0  0  0  0  0  0  0  0  0
    8.1367    1.9694    0.1849 H   0  0  0  0  0  0  0  0  0  0  0  0
   -6.3217    0.6241    1.1057 H   0  0  0  0  0  0  0  0  0  0  0  0
   -6.7661    1.8279   -1.6794 H   0  0  0  0  0  0  0  0  0  0  0  0
   -7.2305   -0.5173   -1.3319 H   0  0  0  0  0  0  0  0  0  0  0  0
   -8.8912    1.4882   -0.4810 H   0  0  0  0  0  0  0  0  0  0  0  0
   -8.5036    3.2062   -0.5607 H   0  0  0  0  0  0  0  0  0  0  0  0
   -8.2493    2.3159    0.9500 H   0  0  0  0  0  0  0  0  0  0  0  0
   -5.7238    3.1645    0.8787 H   0  0  0  0  0  0  0  0  0  0  0  0
   -6.2127    4.0252   -0.5917 H   0  0  0  0  0  0  0  0  0  0  0  0
   -4.8255    2.9408   -0.6345 H   0  0  0  0  0  0  0  0  0  0  0  0
  1 23  1  0  0  0  0
  1 66  1  0  0  0  0
  2 26  1  0  0  0  0
  2 69  1  0  0  0  0
  3  4  1  0  0  0  0
  3  7  1  0  0  0  0
  3  8  1  0  0  0  0
  3 15  1  0  0  0  0
  4  5  1  0  0  0  0
  4 10  1  0  0  0  0
  4 30  1  0  0  0  0
  5  6  1  0  0  0  0
  5 13  1  0  0  0  0
  5 31  1  0  0  0  0
  6  9  1  0  0  0  0
  6 11  1  0  0  0  0
  6 32  1  0  0  0  0
  7 12  1  0  0  0  0
  7 14  1  0  0  0  0
  7 33  1  0  0  0  0
  8 11  1  0  0  0  0
  8 34  1  0  0  0  0
  8 35  1  0  0  0  0
  9 16  1  0  0  0  0
  9 17  1  0  0  0  0
  9 19  1  0  0  0  0
 10 12  1  0  0  0  0
 10 36  1  0  0  0  0
 10 37  1  0  0  0  0
 11 38  1  0  0  0  0
 11 39  1  0  0  0  0
 12 40  1  0  0  0  0
 12 41  1  0  0  0  0
 13 18  1  0  0  0  0
 13 42  1  0  0  0  0
 13 43  1  0  0  0  0
 14 22  1  0  0  0  0
 14 24  1  0  0  0  0
 14 44  1  0  0  0  0
 15 45  1  0  0  0  0
 15 46  1  0  0  0  0
 15 47  1  0  0  0  0
 16 18  2  0  0  0  0
 16 20  1  0  0  0  0
 17 21  1  0  0  0  0
 17 48  1  0  0  0  0
 17 49  1  0  0  0  0
 18 50  1  0  0  0  0
 19 51  1  0  0  0  0
 19 52  1  0  0  0  0
 19 53  1  0  0  0  0
 20 23  1  0  0  0  0
 20 54  1  0  0  0  0
 20 55  1  0  0  0  0
 21 23  1  0  0  0  0
 21 56  1  0  0  0  0
 21 57  1  0  0  0  0
 22 25  1  0  0  0  0
 22 58  1  0  0  0  0
 22 59  1  0  0  0  0
 23 60  1  0  0  0  0
 24 61  1  0  0  0  0
 24 62  1  0  0  0  0
 24 63  1  0  0  0  0
 25 26  1  0  0  0  0
 25 64  1  0  0  0  0
 25 65  1  0  0  0  0
 26 27  1  0  0  0  0
 26 67  1  0  0  0  0
 27 28  1  0  0  0  0
 27 29  1  0  0  0  0
 27 68  1  0  0  0  0
 28 70  1  0  0  0  0
 28 71  1  0  0  0  0
 28 72  1  0  0  0  0
 29 73  1  0  0  0  0
 29 74  1  0  0  0  0
 29 75  1  0  0  0  0
M  END
> <PUBCHEM_COMPOUND_CID>
121948

> <PUBCHEM_CONFORMER_RMSD>
0.8

> <PUBCHEM_CONFORMER_DIVERSEORDER>
2
10
7
8
1
9
3
4
6
5

> <PUBCHEM_MMFF94_PARTIAL_CHARGES>
12
1 -0.68
13 0.14
16 -0.28
18 -0.29
2 -0.68
20 0.14
23 0.28
26 0.28
50 0.15
66 0.4
69 0.4
9 0.14

> <PUBCHEM_EFFECTIVE_ROTOR_COUNT>
7

> <PUBCHEM_PHARMACOPHORE_FEATURES>
10
1 1 acceptor
1 1 donor
1 2 acceptor
1 2 donor
1 24 hydrophobe
3 27 28 29 hydrophobe
5 3 4 7 10 12 rings
6 3 4 5 6 8 11 rings
6 5 6 9 13 16 18 rings
6 9 16 17 20 21 23 rings

> <PUBCHEM_HEAVY_ATOM_COUNT>
29

> <PUBCHEM_ATOM_DEF_STEREO_COUNT>
9

> <PUBCHEM_ATOM_UDEF_STEREO_COUNT>
0

> <PUBCHEM_BOND_DEF_STEREO_COUNT>
0

> <PUBCHEM_BOND_UDEF_STEREO_COUNT>
0

> <PUBCHEM_ISOTOPIC_ATOM_COUNT>
0

> <PUBCHEM_COMPONENT_COUNT>
1

> <PUBCHEM_CACTVS_TAUTO_COUNT>
1

> <PUBCHEM_CONFORMER_ID>
0001DC5C00000002

> <PUBCHEM_MMFF94_ENERGY>
88.3355

> <PUBCHEM_FEATURE_SELFOVERLAP>
50.841

> <PUBCHEM_SHAPE_FINGERPRINT>
10 15 13334737959464209798
10190206 1 17775011150319786089
10674148 151 17967537866200964382
10693767 8 14907902634981636428
10906281 52 17385736811032093902
11456790 92 15574701509524612188
11646440 116 15068337921683108380
12011746 2 17203335545966696162
12035758 1 14056720157940560801
12236239 1 17603580867931375226
12838862 33 16486967419929182040
13690498 29 17488733627705881903
13782708 43 9439411228390538156
13914758 101 18410012118094388370
14251757 52 18187367622944674517
14251764 18 16950282953018029751
14341114 328 17458061543909810147
14849402 71 16878515643050970437
14931854 50 17203619167973276844
15082195 135 18273222997512029688
15183329 4 17060058121321298099
15188451 53 9799688199659270489
15238133 3 18186797002385254408
15510800 12 10303526273505292805
15604295 49 18268706281302931272
15840311 113 17968097456999486319
16728433 281 18201165342991652065
16994733 274 18334010592874691977
17913733 40 15647051543358038617
18222031 100 15267346219254655498
2026 5 13109869076201276796
21033648 29 18341601659612169976
21267235 1 16271379629008537738
21279426 13 16917064499108608271
21424621 283 18260830384627128643
21521239 73 15123508107623449180
21623969 137 13551188875017510753
21637258 2 11167941355489218811
21756936 100 18040154037699536275
21781055 127 17023477348333317382
21792961 116 17703799136479005855
22122407 14 17749967651083019093
221357 26 16343991312307938256
22149856 69 13840546195148666349
2215653 11 16487259889125533842
22224240 67 15791450431572695507
22393880 68 17203037590631200743
23559900 14 16630243722807686778
23569914 152 16624915222875963989
23576562 1 17202472471925178973
2838139 119 18411692197673865885
3004659 81 16845854619924590650
3009799 131 17275102838252961243
312425 54 11891600275318407197
3178227 256 14345797154061994340
335352 9 16343430599673911398
3633792 109 18343027645111632862
3882209 13 16696407654915754678
3918712 181 18336541625983030733
392239 28 15430043175493811703
4015057 19 15554161579839519331
4093350 32 17967248694426880538
4098825 35 18410855425916474126
474113 269 17560242398053804502
5104073 3 15430602895447593544
5385378 56 16660639627035944698
54039377 194 13038897868660626917
5911458 16 17967257494208663245
59682541 35 12829493670466423836
59682541 52 16558750079408108693
59755656 215 17489872639266299538

> <PUBCHEM_SHAPE_MULTIPOLES>
585.07
19.98
2.23
1.87
15.36
0.51
-0.54
16.36
5.77
3.33
0.43
-1.73
-0.07
0.18

> <PUBCHEM_SHAPE_SELFOVERLAP>
1213.026

> <PUBCHEM_SHAPE_VOLUME>
333.8

> <PUBCHEM_COORDINATE_TYPE>
2
5
10

$$$$
