78475
  -OEChem-03212101303D

 15 15  0     0  0  0  0  0  0999 V2000
   -0.8717    1.1855    0.3209 O   0  0  0  0  0  0  0  0  0  0  0  0
   -0.8718   -1.1853    0.3209 O   0  0  0  0  0  0  0  0  0  0  0  0
    1.7566   -0.0001    0.8309 O   0  0  0  0  0  0  0  0  0  0  0  0
    1.1056   -0.0001   -0.4402 C   0  0  0  0  0  0  0  0  0  0  0  0
    0.2539    1.2600   -0.5565 C   0  0  0  0  0  0  0  0  0  0  0  0
    0.2535   -1.2600   -0.5564 C   0  0  0  0  0  0  0  0  0  0  0  0
   -1.6261    0.0001    0.0805 C   0  0  0  0  0  0  0  0  0  0  0  0
    1.8924   -0.0002   -1.2009 H   0  0  0  0  0  0  0  0  0  0  0  0
    0.8300    2.1460   -0.2713 H   0  0  0  0  0  0  0  0  0  0  0  0
   -0.1065    1.3985   -1.5822 H   0  0  0  0  0  0  0  0  0  0  0  0
   -0.1069   -1.3985   -1.5822 H   0  0  0  0  0  0  0  0  0  0  0  0
    0.8295   -2.1461   -0.2713 H   0  0  0  0  0  0  0  0  0  0  0  0
   -2.4719    0.0001    0.7741 H   0  0  0  0  0  0  0  0  0  0  0  0
   -2.0313    0.0002   -0.9390 H   0  0  0  0  0  0  0  0  0  0  0  0
    1.0666    0.0000    1.5164 H   0  0  0  0  0  0  0  0  0  0  0  0
  1  5  1  0  0  0  0
  1  7  1  0  0  0  0
  2  6  1  0  0  0  0
  2  7  1  0  0  0  0
  3  4  1  0  0  0  0
  3 15  1  0  0  0  0
  4  5  1  0  0  0  0
  4  6  1  0  0  0  0
  4  8  1  0  0  0  0
  5  9  1  0  0  0  0
  5 10  1  0  0  0  0
  6 11  1  0  0  0  0
  6 12  1  0  0  0  0
  7 13  1  0  0  0  0
  7 14  1  0  0  0  0
M  END
> <PUBCHEM_COMPOUND_CID>
78475

> <PUBCHEM_CONFORMER_RMSD>
0.4

> <PUBCHEM_CONFORMER_DIVERSEORDER>
1
2
3
4

> <PUBCHEM_MMFF94_PARTIAL_CHARGES>
8
1 -0.56
15 0.4
2 -0.56
3 -0.68
4 0.28
5 0.28
6 0.28
7 0.56

> <PUBCHEM_EFFECTIVE_ROTOR_COUNT>
1.2

> <PUBCHEM_PHARMACOPHORE_FEATURES>
5
1 1 acceptor
1 2 acceptor
1 3 acceptor
1 3 donor
6 1 2 4 5 6 7 rings

> <PUBCHEM_HEAVY_ATOM_COUNT>
7

> <PUBCHEM_ATOM_DEF_STEREO_COUNT>
0

> <PUBCHEM_ATOM_UDEF_STEREO_COUNT>
0

> <PUBCHEM_BOND_DEF_STEREO_COUNT>
0

> <PUBCHEM_BOND_UDEF_STEREO_COUNT>
0

> <PUBCHEM_ISOTOPIC_ATOM_COUNT>
0

> <PUBCHEM_COMPONENT_COUNT>
1

> <PUBCHEM_CACTVS_TAUTO_COUNT>
1

> <PUBCHEM_CONFORMER_ID>
0001328B00000001

> <PUBCHEM_MMFF94_ENERGY>
13.6964

> <PUBCHEM_FEATURE_SELFOVERLAP>
25.412

> <PUBCHEM_SHAPE_FINGERPRINT>
16714656 1 18338532888431047580
18185500 45 17832703852330876190
20096714 4 17833284385817038957
21040471 1 18266751168532197909
24536 1 18338811060340556605
29004967 10 14562531773537432068
5943 1 12268747529162623510

> <PUBCHEM_SHAPE_MULTIPOLES>
126.45
1.76
1.42
0.8
0.04
0
0
0
-0.33
0.15
0.16
-0.2
0
0

> <PUBCHEM_SHAPE_SELFOVERLAP>
243.766

> <PUBCHEM_SHAPE_VOLUME>
75

> <PUBCHEM_COORDINATE_TYPE>
2
5
10

$$$$
