2775
  -OEChem-03212101233D

 25 26  0     0  0  0  0  0  0999 V2000
   -1.4701   -1.5749    0.1001 O   0  0  0  0  0  0  0  0  0  0  0  0
    0.6152    2.7678   -0.3891 O   0  0  0  0  0  0  0  0  0  0  0  0
    3.2937   -1.1486    0.0009 O   0  0  0  0  0  0  0  0  0  0  0  0
   -3.7524   -1.7607    0.1469 O   0  0  0  0  0  0  0  0  0  0  0  0
   -0.4671    0.6291   -0.1472 C   0  0  0  0  0  0  0  0  0  0  0  0
   -0.3319   -0.7490   -0.0011 C   0  0  0  0  0  0  0  0  0  0  0  0
    0.6842    1.4137   -0.2439 C   0  0  0  0  0  0  0  0  0  0  0  0
    0.9185   -1.3616    0.0505 C   0  0  0  0  0  0  0  0  0  0  0  0
    2.0618   -0.5716   -0.0471 C   0  0  0  0  0  0  0  0  0  0  0  0
    1.9454    0.8127   -0.1937 C   0  0  0  0  0  0  0  0  0  0  0  0
   -1.8019    1.2011   -0.1940 C   0  0  0  0  0  0  0  0  0  0  0  0
   -2.8748    0.4121   -0.0979 C   0  0  0  0  0  0  0  0  0  0  0  0
   -2.7575   -1.0497    0.0580 C   0  0  0  0  0  0  0  0  0  0  0  0
    0.5960    3.5461    0.8052 C   0  0  0  0  0  0  0  0  0  0  0  0
    3.3410   -2.5664    0.1523 C   0  0  0  0  0  0  0  0  0  0  0  0
    0.9363   -2.4395    0.1657 H   0  0  0  0  0  0  0  0  0  0  0  0
    2.8415    1.4242   -0.2703 H   0  0  0  0  0  0  0  0  0  0  0  0
   -1.9262    2.2712   -0.3137 H   0  0  0  0  0  0  0  0  0  0  0  0
   -3.8745    0.8313   -0.1345 H   0  0  0  0  0  0  0  0  0  0  0  0
   -0.2379    3.2549    1.4515 H   0  0  0  0  0  0  0  0  0  0  0  0
    0.4716    4.5963    0.5273 H   0  0  0  0  0  0  0  0  0  0  0  0
    1.5422    3.4375    1.3447 H   0  0  0  0  0  0  0  0  0  0  0  0
    4.3972   -2.8544    0.1713 H   0  0  0  0  0  0  0  0  0  0  0  0
    2.8857   -3.0779   -0.7025 H   0  0  0  0  0  0  0  0  0  0  0  0
    2.9060   -2.8841    1.1060 H   0  0  0  0  0  0  0  0  0  0  0  0
  1  6  1  0  0  0  0
  1 13  1  0  0  0  0
  2  7  1  0  0  0  0
  2 14  1  0  0  0  0
  3  9  1  0  0  0  0
  3 15  1  0  0  0  0
  4 13  2  0  0  0  0
  5  6  2  0  0  0  0
  5  7  1  0  0  0  0
  5 11  1  0  0  0  0
  6  8  1  0  0  0  0
  7 10  2  0  0  0  0
  8  9  2  0  0  0  0
  8 16  1  0  0  0  0
  9 10  1  0  0  0  0
 10 17  1  0  0  0  0
 11 12  2  0  0  0  0
 11 18  1  0  0  0  0
 12 13  1  0  0  0  0
 12 19  1  0  0  0  0
 14 20  1  0  0  0  0
 14 21  1  0  0  0  0
 14 22  1  0  0  0  0
 15 23  1  0  0  0  0
 15 24  1  0  0  0  0
 15 25  1  0  0  0  0
M  END
> <PUBCHEM_COMPOUND_CID>
2775

> <PUBCHEM_CONFORMER_RMSD>
0.6

> <PUBCHEM_CONFORMER_DIVERSEORDER>
1
2

> <PUBCHEM_MMFF94_PARTIAL_CHARGES>
19
1 -0.23
10 -0.15
11 -0.18
12 -0.14
13 0.71
14 0.28
15 0.28
16 0.15
17 0.15
18 0.15
19 0.15
2 -0.36
3 -0.36
4 -0.57
5 0.03
6 0.08
7 0.08
8 -0.15
9 0.08

> <PUBCHEM_EFFECTIVE_ROTOR_COUNT>
2

> <PUBCHEM_PHARMACOPHORE_FEATURES>
5
1 2 acceptor
1 3 acceptor
1 4 acceptor
6 1 5 6 11 12 13 rings
6 5 6 7 8 9 10 rings

> <PUBCHEM_HEAVY_ATOM_COUNT>
15

> <PUBCHEM_ATOM_DEF_STEREO_COUNT>
0

> <PUBCHEM_ATOM_UDEF_STEREO_COUNT>
0

> <PUBCHEM_BOND_DEF_STEREO_COUNT>
0

> <PUBCHEM_BOND_UDEF_STEREO_COUNT>
0

> <PUBCHEM_ISOTOPIC_ATOM_COUNT>
0

> <PUBCHEM_COMPONENT_COUNT>
1

> <PUBCHEM_CACTVS_TAUTO_COUNT>
1

> <PUBCHEM_CONFORMER_ID>
00000AD700000001

> <PUBCHEM_MMFF94_ENERGY>
66.099

> <PUBCHEM_FEATURE_SELFOVERLAP>
25.399

> <PUBCHEM_SHAPE_FINGERPRINT>
1 1 17979074112948742660
108231 29 18408604751315518650
10967382 1 18193840563803070582
12032990 46 18410015394695837038
13140716 1 18338797797476291506
13380535 76 17760081113505899616
14817 1 15436163065297773284
15042514 8 18049164371610522787
15375462 189 17969226646271165507
15442244 35 18411423895150511073
16945 1 18194962065695011637
17841504 4 18410856598521309627
17990270 104 18336825393869883611
193761 8 17833833046609718014
19591789 44 16611117335494644575
20510252 161 17982161215625005096
20559304 39 18337674246826862668
20645477 70 18191577765301444007
20871998 184 18128810833653031574
21029758 11 18339913827711993389
21501502 16 18337680797063543237
21524375 3 17408810268282866812
221490 88 18262523726991905811
2334 1 18410012147747605334
23402539 116 18055620721321763957
23463225 33 18337112272031809046
23552423 10 18192715767945442239
2748010 2 18411128121990288772
3071541 250 18337964466341215862
3084891 72 17978219462012637183
3091708 16 9283851232560831848
43471831 8 17617090747347340472
458136 41 17758980481208319849
54173680 148 18193839232484618978
5493415 88 18409163311912395107
58554843 112 18122065570260642123
58807428 26 17693081281851852392
7364860 26 18196372734908398536
81228 2 18050013190350051856
8809292 202 18189058611725038483

> <PUBCHEM_SHAPE_MULTIPOLES>
285.22
4.93
3.33
0.66
0.09
2.69
0.03
-4.43
0.14
0.66
0.59
0.02
0.19
0.03

> <PUBCHEM_SHAPE_SELFOVERLAP>
613.711

> <PUBCHEM_SHAPE_VOLUME>
157.9

> <PUBCHEM_COORDINATE_TYPE>
2
5
10

$$$$
