447
  -OEChem-03202123343D

 15 15  0     0  0  0  0  0  0999 V2000
   -3.0303    1.5840   -0.0010 Cl  0  0  0  0  0  0  0  0  0  0  0  0
    2.8893   -0.6298   -0.0008 O   0  0  0  0  0  0  0  0  0  0  0  0
    2.3668    1.5823    0.0000 O   0  0  0  0  0  0  0  0  0  0  0  0
    0.6202   -0.0528    0.0009 C   0  0  0  0  0  0  0  0  0  0  0  0
   -0.4206    0.8761    0.0010 C   0  0  0  0  0  0  0  0  0  0  0  0
    0.3362   -1.4185    0.0003 C   0  0  0  0  0  0  0  0  0  0  0  0
   -1.7453    0.4390    0.0004 C   0  0  0  0  0  0  0  0  0  0  0  0
   -0.9884   -1.8555   -0.0002 C   0  0  0  0  0  0  0  0  0  0  0  0
   -2.0291   -0.9268   -0.0002 C   0  0  0  0  0  0  0  0  0  0  0  0
    2.0012    0.4020   -0.0004 C   0  0  0  0  0  0  0  0  0  0  0  0
   -0.2054    1.9423    0.0010 H   0  0  0  0  0  0  0  0  0  0  0  0
    1.1152   -2.1756    0.0000 H   0  0  0  0  0  0  0  0  0  0  0  0
   -1.2100   -2.9188   -0.0008 H   0  0  0  0  0  0  0  0  0  0  0  0
   -3.0565   -1.2819   -0.0010 H   0  0  0  0  0  0  0  0  0  0  0  0
    3.8175   -0.3123   -0.0012 H   0  0  0  0  0  0  0  0  0  0  0  0
  1  7  1  0  0  0  0
  2 10  1  0  0  0  0
  2 15  1  0  0  0  0
  3 10  2  0  0  0  0
  4  5  2  0  0  0  0
  4  6  1  0  0  0  0
  4 10  1  0  0  0  0
  5  7  1  0  0  0  0
  5 11  1  0  0  0  0
  6  8  2  0  0  0  0
  6 12  1  0  0  0  0
  7  9  2  0  0  0  0
  8  9  1  0  0  0  0
  8 13  1  0  0  0  0
  9 14  1  0  0  0  0
M  END
> <PUBCHEM_COMPOUND_CID>
447

> <PUBCHEM_CONFORMER_RMSD>
0.4

> <PUBCHEM_CONFORMER_DIVERSEORDER>
1
2

> <PUBCHEM_MMFF94_PARTIAL_CHARGES>
15
1 -0.18
10 0.63
11 0.15
12 0.15
13 0.15
14 0.15
15 0.5
2 -0.65
3 -0.57
4 0.09
5 -0.15
6 -0.15
7 0.18
8 -0.15
9 -0.15

> <PUBCHEM_EFFECTIVE_ROTOR_COUNT>
1

> <PUBCHEM_PHARMACOPHORE_FEATURES>
4
1 2 acceptor
1 3 acceptor
3 2 3 10 anion
6 4 5 6 7 8 9 rings

> <PUBCHEM_HEAVY_ATOM_COUNT>
10

> <PUBCHEM_ATOM_DEF_STEREO_COUNT>
0

> <PUBCHEM_ATOM_UDEF_STEREO_COUNT>
0

> <PUBCHEM_BOND_DEF_STEREO_COUNT>
0

> <PUBCHEM_BOND_UDEF_STEREO_COUNT>
0

> <PUBCHEM_ISOTOPIC_ATOM_COUNT>
0

> <PUBCHEM_COMPONENT_COUNT>
1

> <PUBCHEM_CACTVS_TAUTO_COUNT>
1

> <PUBCHEM_CONFORMER_ID>
000001BF00000001

> <PUBCHEM_MMFF94_ENERGY>
25.2005

> <PUBCHEM_FEATURE_SELFOVERLAP>
20.355

> <PUBCHEM_SHAPE_FINGERPRINT>
12716758 59 18413105086709565938
12932764 1 17631453539087157686
13380535 76 18338795603075277895
14325111 11 18410575093284850401
15775835 57 18261117344013429460
16945 1 18266740190495542979
193761 8 14591804522464502278
19973954 147 18338237192649041884
20653085 51 18409740555342930313
20871998 184 18127982016565637287
21028194 46 18408890603085384793
21040471 1 18410856546881540195
23235685 24 18339073779306024169
23402655 69 18053085248041421333
23552423 10 18188771768292207398
23559900 14 18271534118187576230
241688 4 16539049833152041235
2748010 2 18411140263736175511
369184 2 18341895254796685530
5084963 1 18273214218012703586
528886 8 18338793408061932289

> <PUBCHEM_SHAPE_MULTIPOLES>
195.93
4.02
1.88
0.6
0.41
0.28
0
-1.74
0
-0.49
0
-0.06
0.01
0

> <PUBCHEM_SHAPE_SELFOVERLAP>
402.686

> <PUBCHEM_SHAPE_VOLUME>
113.8

> <PUBCHEM_COORDINATE_TYPE>
2
5
10

$$$$
