5352948
  -OEChem-03212101573D

 54 53  0     0  0  0  0  0  0999 V2000
    2.0660   -3.6715   -0.0009 Si  0  0  0  0  0  0  0  0  0  0  0  0
    3.5258    2.4758   -0.2342 Si  0  0  0  0  0  0  0  0  0  0  0  0
   -5.1031    0.2973   -0.2647 Si  0  0  0  0  0  0  0  0  0  0  0  0
    1.4267   -2.3270    0.7654 O   0  0  0  0  0  0  0  0  0  0  0  0
    2.1273    1.6116    0.0758 O   0  0  0  0  0  0  0  0  0  0  0  0
   -3.5709    0.9679   -0.1691 O   0  0  0  0  0  0  0  0  0  0  0  0
    0.8333   -1.0547   -1.0715 O   0  0  0  0  0  0  0  0  0  0  0  0
    0.6107    3.3263    0.3921 O   0  0  0  0  0  0  0  0  0  0  0  0
   -2.3819   -0.8111    0.7086 O   0  0  0  0  0  0  0  0  0  0  0  0
    0.7623   -4.4610   -1.1064 C   0  0  0  0  0  0  0  0  0  0  0  0
    2.6202   -4.9557    1.2566 C   0  0  0  0  0  0  0  0  0  0  0  0
    3.5366   -3.2032   -1.0744 C   0  0  0  0  0  0  0  0  0  0  0  0
    4.9512    1.2846   -0.5431 C   0  0  0  0  0  0  0  0  0  0  0  0
    3.3263    3.5568   -1.7591 C   0  0  0  0  0  0  0  0  0  0  0  0
    3.9796    3.5687    1.2257 C   0  0  0  0  0  0  0  0  0  0  0  0
    0.4447   -0.2433    1.1916 C   0  0  0  0  0  0  0  0  0  0  0  0
   -0.0682    1.0226    0.5598 C   0  0  0  0  0  0  0  0  0  0  0  0
   -5.7160   -0.2248    1.4346 C   0  0  0  0  0  0  0  0  0  0  0  0
   -6.3295    1.5201   -0.9973 C   0  0  0  0  0  0  0  0  0  0  0  0
   -5.0678   -1.2281   -1.3681 C   0  0  0  0  0  0  0  0  0  0  0  0
    0.9177   -1.2259    0.1378 C   0  0  0  0  0  0  0  0  0  0  0  0
    0.9030    2.1398    0.3428 C   0  0  0  0  0  0  0  0  0  0  0  0
   -1.3340    1.2994    0.2004 C   0  0  0  0  0  0  0  0  0  0  0  0
   -2.4599    0.3352    0.2975 C   0  0  0  0  0  0  0  0  0  0  0  0
   -0.1190   -4.7379   -0.5204 H   0  0  0  0  0  0  0  0  0  0  0  0
    1.1581   -5.3637   -1.5810 H   0  0  0  0  0  0  0  0  0  0  0  0
    0.4491   -3.7692   -1.8936 H   0  0  0  0  0  0  0  0  0  0  0  0
    1.7778   -5.2723    1.8785 H   0  0  0  0  0  0  0  0  0  0  0  0
    3.0278   -5.8374    0.7534 H   0  0  0  0  0  0  0  0  0  0  0  0
    3.3945   -4.5433    1.9101 H   0  0  0  0  0  0  0  0  0  0  0  0
    3.2382   -2.4996   -1.8569 H   0  0  0  0  0  0  0  0  0  0  0  0
    4.3177   -2.7325   -0.4699 H   0  0  0  0  0  0  0  0  0  0  0  0
    3.9607   -4.0900   -1.5544 H   0  0  0  0  0  0  0  0  0  0  0  0
    5.1153    0.6490    0.3321 H   0  0  0  0  0  0  0  0  0  0  0  0
    4.7325    0.6402   -1.3998 H   0  0  0  0  0  0  0  0  0  0  0  0
    5.8745    1.8336   -0.7499 H   0  0  0  0  0  0  0  0  0  0  0  0
    2.5346    4.2965   -1.6091 H   0  0  0  0  0  0  0  0  0  0  0  0
    4.2564    4.0899   -1.9772 H   0  0  0  0  0  0  0  0  0  0  0  0
    3.0667    2.9475   -2.6297 H   0  0  0  0  0  0  0  0  0  0  0  0
    3.1961    4.3082    1.4150 H   0  0  0  0  0  0  0  0  0  0  0  0
    4.1094    2.9667    2.1299 H   0  0  0  0  0  0  0  0  0  0  0  0
    4.9145    4.1026    1.0311 H   0  0  0  0  0  0  0  0  0  0  0  0
    1.2874   -0.0126    1.8547 H   0  0  0  0  0  0  0  0  0  0  0  0
   -0.3133   -0.7226    1.8165 H   0  0  0  0  0  0  0  0  0  0  0  0
   -5.0573   -0.9819    1.8695 H   0  0  0  0  0  0  0  0  0  0  0  0
   -5.7464    0.6342    2.1114 H   0  0  0  0  0  0  0  0  0  0  0  0
   -6.7238   -0.6453    1.3674 H   0  0  0  0  0  0  0  0  0  0  0  0
   -6.0175    1.8219   -2.0014 H   0  0  0  0  0  0  0  0  0  0  0  0
   -7.3257    1.0733   -1.0658 H   0  0  0  0  0  0  0  0  0  0  0  0
   -6.3961    2.4166   -0.3739 H   0  0  0  0  0  0  0  0  0  0  0  0
   -4.7050   -0.9691   -2.3671 H   0  0  0  0  0  0  0  0  0  0  0  0
   -4.4092   -1.9949   -0.9503 H   0  0  0  0  0  0  0  0  0  0  0  0
   -6.0709   -1.6538   -1.4655 H   0  0  0  0  0  0  0  0  0  0  0  0
   -1.5853    2.2659   -0.2316 H   0  0  0  0  0  0  0  0  0  0  0  0
  1  4  1  0  0  0  0
  1 10  1  0  0  0  0
  1 11  1  0  0  0  0
  1 12  1  0  0  0  0
  2  5  1  0  0  0  0
  2 13  1  0  0  0  0
  2 14  1  0  0  0  0
  2 15  1  0  0  0  0
  3  6  1  0  0  0  0
  3 18  1  0  0  0  0
  3 19  1  0  0  0  0
  3 20  1  0  0  0  0
  4 21  1  0  0  0  0
  5 22  1  0  0  0  0
  6 24  1  0  0  0  0
  7 21  2  0  0  0  0
  8 22  2  0  0  0  0
  9 24  2  0  0  0  0
 10 25  1  0  0  0  0
 10 26  1  0  0  0  0
 10 27  1  0  0  0  0
 11 28  1  0  0  0  0
 11 29  1  0  0  0  0
 11 30  1  0  0  0  0
 12 31  1  0  0  0  0
 12 32  1  0  0  0  0
 12 33  1  0  0  0  0
 13 34  1  0  0  0  0
 13 35  1  0  0  0  0
 13 36  1  0  0  0  0
 14 37  1  0  0  0  0
 14 38  1  0  0  0  0
 14 39  1  0  0  0  0
 15 40  1  0  0  0  0
 15 41  1  0  0  0  0
 15 42  1  0  0  0  0
 16 17  1  0  0  0  0
 16 21  1  0  0  0  0
 16 43  1  0  0  0  0
 16 44  1  0  0  0  0
 17 22  1  0  0  0  0
 17 23  2  0  0  0  0
 18 45  1  0  0  0  0
 18 46  1  0  0  0  0
 18 47  1  0  0  0  0
 19 48  1  0  0  0  0
 19 49  1  0  0  0  0
 19 50  1  0  0  0  0
 20 51  1  0  0  0  0
 20 52  1  0  0  0  0
 20 53  1  0  0  0  0
 23 24  1  0  0  0  0
 23 54  1  0  0  0  0
M  END
> <PUBCHEM_COMPOUND_CID>
5352948

> <PUBCHEM_CONFORMER_RMSD>
1.4

> <PUBCHEM_CONFORMER_DIVERSEORDER>
1
5
10
2
8
7
4
6
12
9
11
3

> <PUBCHEM_MMFF94_PARTIAL_CHARGES>
25
1 0.54
10 -0.08
11 -0.08
12 -0.08
13 -0.08
14 -0.08
15 -0.08
16 0.2
17 -0.12
18 -0.08
19 -0.08
2 0.54
20 -0.08
21 0.66
22 0.71
23 -0.14
24 0.71
3 0.54
4 -0.45
5 -0.45
54 0.15
6 -0.45
7 -0.57
8 -0.57
9 -0.57

> <PUBCHEM_EFFECTIVE_ROTOR_COUNT>
10

> <PUBCHEM_PHARMACOPHORE_FEATURES>
3
1 7 acceptor
1 8 acceptor
1 9 acceptor

> <PUBCHEM_HEAVY_ATOM_COUNT>
24

> <PUBCHEM_ATOM_DEF_STEREO_COUNT>
0

> <PUBCHEM_ATOM_UDEF_STEREO_COUNT>
0

> <PUBCHEM_BOND_DEF_STEREO_COUNT>
1

> <PUBCHEM_BOND_UDEF_STEREO_COUNT>
0

> <PUBCHEM_ISOTOPIC_ATOM_COUNT>
0

> <PUBCHEM_COMPONENT_COUNT>
1

> <PUBCHEM_CACTVS_TAUTO_COUNT>
1

> <PUBCHEM_CONFORMER_ID>
0051ADF400000001

> <PUBCHEM_MMFF94_ENERGY>
26.2068

> <PUBCHEM_FEATURE_SELFOVERLAP>
15.223

> <PUBCHEM_SHAPE_FINGERPRINT>
10721379 63 18341058406247035356
11045515 52 17757841022179063364
11488393 25 18262518087393475528
12730499 353 18337116756415308281
12788726 201 17255134345873233714
13955234 65 18411702071328536355
13968360 50 18336815502581299927
14508225 48 17832980555583161831
14790565 3 18194680595134964317
15328829 1 17559417772152169857
1813 80 17984140362108891327
20197701 30 18270115867529184548
20600515 1 17265815023094401928
20645477 70 18337660941915043463
21054139 6 18056183916225276439
21344244 246 18412268324692550558
21796203 349 17980231632690402731
22182313 1 17895773871363042643
23366157 5 18334864865805903393
23559900 14 18340759335206090115
25147074 1 17916595215747741057
266924 1 17988374671581770521
3298306 158 18338240473930066708
38695281 34 18339921627314398695
4280585 95 17903908964228101362
46194498 28 18261945242478943853
5385378 56 18411427219408089649
59755656 215 18408324371656000628
6669772 16 18342463694409252140
6679774 75 18187071898152940402
6898599 12 17468773230722166148

> <PUBCHEM_SHAPE_MULTIPOLES>
513.33
11.84
6.57
1.38
20.44
6.43
-0.12
-5.64
-2.07
-11.94
-0.26
0
0.1
-0.22

> <PUBCHEM_SHAPE_SELFOVERLAP>
945.989

> <PUBCHEM_SHAPE_VOLUME>
326.6

> <PUBCHEM_COORDINATE_TYPE>
2
5
10

$$$$
