79985
  -OEChem-03202123383D

 32 31  0     0  0  0  0  0  0999 V2000
    1.5269   -0.3187    0.3654 C   0  0  0  0  0  0  0  0  0  0  0  0
    0.1657   -0.6208   -0.3048 C   0  0  0  0  0  0  0  0  0  0  0  0
   -1.0821   -0.1376    0.4438 C   0  0  0  0  0  0  0  0  0  0  0  0
    1.7678    1.1853    0.6171 C   0  0  0  0  0  0  0  0  0  0  0  0
    2.6462   -0.9894   -0.4638 C   0  0  0  0  0  0  0  0  0  0  0  0
   -2.3884   -0.4188   -0.3012 C   0  0  0  0  0  0  0  0  0  0  0  0
   -3.5869    0.1726    0.4421 C   0  0  0  0  0  0  0  0  0  0  0  0
    1.8015    2.0528   -0.6334 C   0  0  0  0  0  0  0  0  0  0  0  0
    4.0341   -0.8562    0.1469 C   0  0  0  0  0  0  0  0  0  0  0  0
   -4.8847   -0.0692   -0.3120 C   0  0  0  0  0  0  0  0  0  0  0  0
    1.5156   -0.8054    1.3507 H   0  0  0  0  0  0  0  0  0  0  0  0
    0.0750   -1.7078   -0.4336 H   0  0  0  0  0  0  0  0  0  0  0  0
    0.1576   -0.2004   -1.3183 H   0  0  0  0  0  0  0  0  0  0  0  0
   -1.1139   -0.6094    1.4333 H   0  0  0  0  0  0  0  0  0  0  0  0
   -1.0114    0.9431    0.6085 H   0  0  0  0  0  0  0  0  0  0  0  0
    0.9952    1.5723    1.2913 H   0  0  0  0  0  0  0  0  0  0  0  0
    2.7098    1.3194    1.1613 H   0  0  0  0  0  0  0  0  0  0  0  0
    2.6613   -0.5894   -1.4843 H   0  0  0  0  0  0  0  0  0  0  0  0
    2.4223   -2.0599   -0.5569 H   0  0  0  0  0  0  0  0  0  0  0  0
   -2.5188   -1.5011   -0.4187 H   0  0  0  0  0  0  0  0  0  0  0  0
   -2.3343    0.0120   -1.3084 H   0  0  0  0  0  0  0  0  0  0  0  0
   -3.4480    1.2516    0.5766 H   0  0  0  0  0  0  0  0  0  0  0  0
   -3.6611   -0.2723    1.4412 H   0  0  0  0  0  0  0  0  0  0  0  0
    0.8507    2.0193   -1.1728 H   0  0  0  0  0  0  0  0  0  0  0  0
    2.6005    1.7476   -1.3148 H   0  0  0  0  0  0  0  0  0  0  0  0
    1.9855    3.0961   -0.3559 H   0  0  0  0  0  0  0  0  0  0  0  0
    4.0420   -1.2006    1.1857 H   0  0  0  0  0  0  0  0  0  0  0  0
    4.3891    0.1780    0.1185 H   0  0  0  0  0  0  0  0  0  0  0  0
    4.7503   -1.4634   -0.4162 H   0  0  0  0  0  0  0  0  0  0  0  0
   -5.7282    0.3597    0.2379 H   0  0  0  0  0  0  0  0  0  0  0  0
   -4.8547    0.3939   -1.3035 H   0  0  0  0  0  0  0  0  0  0  0  0
   -5.0709   -1.1405   -0.4383 H   0  0  0  0  0  0  0  0  0  0  0  0
  1  2  1  0  0  0  0
  1  4  1  0  0  0  0
  1  5  1  0  0  0  0
  1 11  1  0  0  0  0
  2  3  1  0  0  0  0
  2 12  1  0  0  0  0
  2 13  1  0  0  0  0
  3  6  1  0  0  0  0
  3 14  1  0  0  0  0
  3 15  1  0  0  0  0
  4  8  1  0  0  0  0
  4 16  1  0  0  0  0
  4 17  1  0  0  0  0
  5  9  1  0  0  0  0
  5 18  1  0  0  0  0
  5 19  1  0  0  0  0
  6  7  1  0  0  0  0
  6 20  1  0  0  0  0
  6 21  1  0  0  0  0
  7 10  1  0  0  0  0
  7 22  1  0  0  0  0
  7 23  1  0  0  0  0
  8 24  1  0  0  0  0
  8 25  1  0  0  0  0
  8 26  1  0  0  0  0
  9 27  1  0  0  0  0
  9 28  1  0  0  0  0
  9 29  1  0  0  0  0
 10 30  1  0  0  0  0
 10 31  1  0  0  0  0
 10 32  1  0  0  0  0
M  END
> <PUBCHEM_COMPOUND_CID>
79985

> <PUBCHEM_CONFORMER_RMSD>
0.6

> <PUBCHEM_CONFORMER_DIVERSEORDER>
2
71
70
85
38
39
24
27
30
69
10
86
54
1
18
19
81
7
66
87
32
25
50
72
6
73
14
61
47
48
63
68
9
12
56
84
16
8
13
15
31
60
51
62
80
77
33
36
42
45
53
58
28
44
49
82
23
76
59
21
3
75
17
5
29
37
41
74
43
55
22
67
78
20
64
4
40
83
52
11
79
65
26
46
57
34
35

> <PUBCHEM_MMFF94_PARTIAL_CHARGES>
0

> <PUBCHEM_EFFECTIVE_ROTOR_COUNT>
6

> <PUBCHEM_PHARMACOPHORE_FEATURES>
5
1 10 hydrophobe
1 8 hydrophobe
1 9 hydrophobe
3 3 6 7 hydrophobe
4 1 2 4 5 hydrophobe

> <PUBCHEM_HEAVY_ATOM_COUNT>
10

> <PUBCHEM_ATOM_DEF_STEREO_COUNT>
0

> <PUBCHEM_ATOM_UDEF_STEREO_COUNT>
0

> <PUBCHEM_BOND_DEF_STEREO_COUNT>
0

> <PUBCHEM_BOND_UDEF_STEREO_COUNT>
0

> <PUBCHEM_ISOTOPIC_ATOM_COUNT>
0

> <PUBCHEM_COMPONENT_COUNT>
1

> <PUBCHEM_CACTVS_TAUTO_COUNT>
1

> <PUBCHEM_CONFORMER_ID>
0001387100000002

> <PUBCHEM_MMFF94_ENERGY>
2.3305

> <PUBCHEM_FEATURE_SELFOVERLAP>
25.438

> <PUBCHEM_SHAPE_FINGERPRINT>
11062470 55 12967125004050333259
12162725 195 18343869909482979529
12932764 1 17168130269950378587
13922767 16 18412823581652207897
14325111 11 18341331192921501219
15477762 27 18342740697829459934
17802600 8 18412822465377799569
18186145 218 18114173151585292851
20339313 130 18410300211230677672
20606313 2 18410856581178169996
20645477 70 18412263939077253903
20671657 1 18338521970360878660
20871998 22 18199190586090370334
21119208 17 18273213084558094687
23380061 81 18334862752808724161
23402539 116 14476952346962447473
23532345 12 18131355176537121897
23557571 272 14333418817475046075

> <PUBCHEM_SHAPE_MULTIPOLES>
205.8
8.18
1.42
0.8
7.85
0.84
0
-1.32
0.31
-1.53
0.23
-0.07
0.09
-0.11

> <PUBCHEM_SHAPE_SELFOVERLAP>
361.087

> <PUBCHEM_SHAPE_VOLUME>
136.9

> <PUBCHEM_COORDINATE_TYPE>
2
5
10

$$$$
