232986
  -OEChem-03212100493D

 17 17  0     0  0  0  0  0  0999 V2000
   -2.9438   -1.8966    0.0012 Br  0  0  0  0  0  0  0  0  0  0  0  0
    3.6949   -0.5761    0.0023 O   0  0  0  0  0  0  0  0  0  0  0  0
    3.0510    1.6038   -0.0005 O   0  0  0  0  0  0  0  0  0  0  0  0
   -1.8227    2.3879    0.0013 O   0  5  0  0  0  0  0  0  0  0  0  0
   -3.2469    0.7172    0.0001 O   0  0  0  0  0  0  0  0  0  0  0  0
   -2.0746    1.1603    0.0003 N   0  3  0  0  0  0  0  0  0  0  0  0
    1.3973   -0.1252   -0.0009 C   0  0  0  0  0  0  0  0  0  0  0  0
   -0.9914    0.2370   -0.0011 C   0  0  0  0  0  0  0  0  0  0  0  0
    0.3075    0.7455   -0.0013 C   0  0  0  0  0  0  0  0  0  0  0  0
    1.1882   -1.5043   -0.0003 C   0  0  0  0  0  0  0  0  0  0  0  0
   -1.2005   -1.1421   -0.0007 C   0  0  0  0  0  0  0  0  0  0  0  0
   -0.1107   -2.0127   -0.0003 C   0  0  0  0  0  0  0  0  0  0  0  0
    2.7516    0.4053   -0.0001 C   0  0  0  0  0  0  0  0  0  0  0  0
    0.4947    1.8169   -0.0013 H   0  0  0  0  0  0  0  0  0  0  0  0
    2.0077   -2.2175    0.0001 H   0  0  0  0  0  0  0  0  0  0  0  0
   -0.2537   -3.0904    0.0003 H   0  0  0  0  0  0  0  0  0  0  0  0
    4.6043   -0.2081    0.0034 H   0  0  0  0  0  0  0  0  0  0  0  0
  1 11  1  0  0  0  0
  2 13  1  0  0  0  0
  2 17  1  0  0  0  0
  3 13  2  0  0  0  0
  4  6  1  0  0  0  0
  5  6  2  0  0  0  0
  6  8  1  0  0  0  0
  7  9  2  0  0  0  0
  7 10  1  0  0  0  0
  7 13  1  0  0  0  0
  8  9  1  0  0  0  0
  8 11  2  0  0  0  0
  9 14  1  0  0  0  0
 10 12  2  0  0  0  0
 10 15  1  0  0  0  0
 11 12  1  0  0  0  0
 12 16  1  0  0  0  0
M  CHG  2   4  -1   6   1
M  END
> <PUBCHEM_COMPOUND_CID>
232986

> <PUBCHEM_CONFORMER_RMSD>
0.6

> <PUBCHEM_CONFORMER_DIVERSEORDER>
1
2

> <PUBCHEM_MMFF94_PARTIAL_CHARGES>
17
1 -0.11
10 -0.15
11 0.11
12 -0.15
13 0.63
14 0.15
15 0.15
16 0.15
17 0.5
2 -0.65
3 -0.57
4 -0.52
5 -0.52
6 0.91
7 0.09
8 0.13
9 -0.15

> <PUBCHEM_EFFECTIVE_ROTOR_COUNT>
2

> <PUBCHEM_PHARMACOPHORE_FEATURES>
8
1 1 hydrophobe
1 2 acceptor
1 3 acceptor
1 4 acceptor
1 4 anion
1 5 acceptor
3 2 3 13 anion
6 7 8 9 10 11 12 rings

> <PUBCHEM_HEAVY_ATOM_COUNT>
13

> <PUBCHEM_ATOM_DEF_STEREO_COUNT>
0

> <PUBCHEM_ATOM_UDEF_STEREO_COUNT>
0

> <PUBCHEM_BOND_DEF_STEREO_COUNT>
0

> <PUBCHEM_BOND_UDEF_STEREO_COUNT>
0

> <PUBCHEM_ISOTOPIC_ATOM_COUNT>
0

> <PUBCHEM_COMPONENT_COUNT>
1

> <PUBCHEM_CACTVS_TAUTO_COUNT>
1

> <PUBCHEM_CONFORMER_ID>
00038E1A00000001

> <PUBCHEM_MMFF94_ENERGY>
49.3581

> <PUBCHEM_FEATURE_SELFOVERLAP>
40.736

> <PUBCHEM_SHAPE_FINGERPRINT>
10608611 8 18412824698628749272
10967382 1 18266740186189883271
11132069 177 18412539937817239665
11206711 2 18339078293290246439
12032990 46 18265338502296889403
13380535 21 18341062812941555287
13380535 76 18339077090646896015
14325111 11 18410855486172272164
14614273 12 18260539009724381671
15775835 57 18410860940527608552
16945 1 18266458698386526855
193761 8 18266458707045364515
20510252 161 18342460399594381568
20871998 184 18272375329580467343
21040471 1 18338516322420537158
21501502 16 18410570656631366339
21524375 3 18337389327275863587
2334 1 18338516455574975398
23402539 116 18198332047307016119
23402655 69 18269540681941742837
23463225 33 18334853896807725442
23559900 14 18272655615821628870
2748010 2 18411419535373642294
528886 8 18411131407529552346
53812653 166 18343579637959429760
6333449 129 18412543223615024407
7364860 26 18125159329588321134

> <PUBCHEM_SHAPE_MULTIPOLES>
245.02
5.17
2.27
0.59
1.82
0.4
0
0.18
0
-1.27
0
-0.04
-0.06
0

> <PUBCHEM_SHAPE_SELFOVERLAP>
507.115

> <PUBCHEM_SHAPE_VOLUME>
144.5

> <PUBCHEM_COORDINATE_TYPE>
2
5
10

$$$$
