11744922
  -OEChem-03212101223D

 27 27  0     1  0  0  0  0  0999 V2000
    2.1611    1.1018   -0.4845 O   0  0  0  0  0  0  0  0  0  0  0  0
    0.6994   -0.6925   -0.0617 O   0  0  0  0  0  0  0  0  0  0  0  0
   -5.3017    0.4541    0.0545 O   0  0  0  0  0  0  0  0  0  0  0  0
    3.0638   -1.0596   -0.1870 C   0  0  0  0  0  0  0  0  0  0  0  0
    1.8825   -0.2821   -0.7380 C   0  0  2  0  0  0  0  0  0  0  0  0
    3.4738   -0.2081    0.9907 C   0  0  0  0  0  0  0  0  0  0  0  0
    3.2313    1.1906    0.4670 C   0  0  0  0  0  0  0  0  0  0  0  0
   -0.4430    0.0051   -0.5384 C   0  0  0  0  0  0  0  0  0  0  0  0
   -1.6716   -0.4938    0.2087 C   0  0  0  0  0  0  0  0  0  0  0  0
   -2.9368    0.2264   -0.2441 C   0  0  0  0  0  0  0  0  0  0  0  0
   -4.1589   -0.2418    0.5328 C   0  0  0  0  0  0  0  0  0  0  0  0
    3.8786   -1.0757   -0.9204 H   0  0  0  0  0  0  0  0  0  0  0  0
    2.8212   -2.0867    0.0995 H   0  0  0  0  0  0  0  0  0  0  0  0
    1.7688   -0.4476   -1.8153 H   0  0  0  0  0  0  0  0  0  0  0  0
    2.8145   -0.4082    1.8436 H   0  0  0  0  0  0  0  0  0  0  0  0
    4.5058   -0.3703    1.3126 H   0  0  0  0  0  0  0  0  0  0  0  0
    2.9627    1.8950    1.2593 H   0  0  0  0  0  0  0  0  0  0  0  0
    4.1120    1.5750   -0.0582 H   0  0  0  0  0  0  0  0  0  0  0  0
   -0.3244    1.0813   -0.3691 H   0  0  0  0  0  0  0  0  0  0  0  0
   -0.5611   -0.1730   -1.6138 H   0  0  0  0  0  0  0  0  0  0  0  0
   -1.7754   -1.5758    0.0586 H   0  0  0  0  0  0  0  0  0  0  0  0
   -1.5205   -0.3538    1.2865 H   0  0  0  0  0  0  0  0  0  0  0  0
   -2.8233    1.3105   -0.1190 H   0  0  0  0  0  0  0  0  0  0  0  0
   -3.1023    0.0646   -1.3166 H   0  0  0  0  0  0  0  0  0  0  0  0
   -4.3222   -1.3153    0.3939 H   0  0  0  0  0  0  0  0  0  0  0  0
   -4.0460   -0.0337    1.6015 H   0  0  0  0  0  0  0  0  0  0  0  0
   -6.0645    0.1359    0.5669 H   0  0  0  0  0  0  0  0  0  0  0  0
  1  5  1  0  0  0  0
  1  7  1  0  0  0  0
  2  5  1  0  0  0  0
  2  8  1  0  0  0  0
  3 11  1  0  0  0  0
  3 27  1  0  0  0  0
  4  5  1  0  0  0  0
  4  6  1  0  0  0  0
  4 12  1  0  0  0  0
  4 13  1  0  0  0  0
  5 14  1  0  0  0  0
  6  7  1  0  0  0  0
  6 15  1  0  0  0  0
  6 16  1  0  0  0  0
  7 17  1  0  0  0  0
  7 18  1  0  0  0  0
  8  9  1  0  0  0  0
  8 19  1  0  0  0  0
  8 20  1  0  0  0  0
  9 10  1  0  0  0  0
  9 21  1  0  0  0  0
  9 22  1  0  0  0  0
 10 11  1  0  0  0  0
 10 23  1  0  0  0  0
 10 24  1  0  0  0  0
 11 25  1  0  0  0  0
 11 26  1  0  0  0  0
M  END
> <PUBCHEM_COMPOUND_CID>
11744922

> <PUBCHEM_CONFORMER_RMSD>
0.6

> <PUBCHEM_CONFORMER_DIVERSEORDER>
1
135
28
80
127
104
64
128
30
107
106
29
78
66
121
49
40
129
115
132
8
73
76
2
62
130
138
7
98
110
120
74
133
63
137
92
96
83
123
126
134
55
125
91
86
136
89
24
118
131
99
61
18
79
112
34
97
101
43
95
21
94
71
102
57
56
65
69
108
58
122
15
33
36
85
77
114
31
100
82
25
45
27
70
119
39
5
60
103
124
68
111
81
50
59
4
116
93
48
105
46
10
90
54
44
53
75
17
32
117
67
3
72
84
13
26
35
9
113
12
11
109
22
23
6
87
14
42
88
47
41
37
52
16
38
51
19
20

> <PUBCHEM_MMFF94_PARTIAL_CHARGES>
8
1 -0.56
11 0.28
2 -0.56
27 0.4
3 -0.68
5 0.56
7 0.28
8 0.28

> <PUBCHEM_EFFECTIVE_ROTOR_COUNT>
6

> <PUBCHEM_PHARMACOPHORE_FEATURES>
5
1 1 acceptor
1 2 acceptor
1 3 acceptor
1 3 donor
5 1 4 5 6 7 rings

> <PUBCHEM_HEAVY_ATOM_COUNT>
11

> <PUBCHEM_ATOM_DEF_STEREO_COUNT>
0

> <PUBCHEM_ATOM_UDEF_STEREO_COUNT>
1

> <PUBCHEM_BOND_DEF_STEREO_COUNT>
0

> <PUBCHEM_BOND_UDEF_STEREO_COUNT>
0

> <PUBCHEM_ISOTOPIC_ATOM_COUNT>
0

> <PUBCHEM_COMPONENT_COUNT>
1

> <PUBCHEM_CACTVS_TAUTO_COUNT>
1

> <PUBCHEM_CONFORMER_ID>
00B3369A00000001

> <PUBCHEM_MMFF94_ENERGY>
12.3339

> <PUBCHEM_FEATURE_SELFOVERLAP>
25.412

> <PUBCHEM_SHAPE_FINGERPRINT>
11062470 55 17132114641295693927
114248 4 11887948861347250291
12616999 72 10735878387161691400
12932764 1 17458335360174147438
14123238 8 16272205297842472045
14252887 29 14996278111516044664
177051 138 15140957352866444731
190213 19 18060704983337037179
20645477 70 17845940632331587263
20724930 37 18202562865087202446
22485316 2 11746940905947787115
23402539 116 18409439289869004935
23402655 69 10015868677879773083
42 15 17385439912548001571
5374978 207 18409448081298034961
94968 8 10881395426851095720

> <PUBCHEM_SHAPE_MULTIPOLES>
208.77
9.27
1.02
0.85
10.56
0.11
-0.06
1.15
-1.77
-0.89
0.01
-0.36
0
0.16

> <PUBCHEM_SHAPE_SELFOVERLAP>
397.236

> <PUBCHEM_SHAPE_VOLUME>
129.5

> <PUBCHEM_COORDINATE_TYPE>
2
5
10

$$$$
