51042
  -OEChem-03192122263D

 22 23  0     0  0  0  0  0  0999 V2000
   -1.5128    0.0020   -2.5347 Cl  0  0  0  0  0  0  0  0  0  0  0  0
    2.8801    2.7441    0.0625 Cl  0  0  0  0  0  0  0  0  0  0  0  0
    2.8769   -2.7450    0.0589 Cl  0  0  0  0  0  0  0  0  0  0  0  0
    4.5174   -0.0015    0.0103 Cl  0  0  0  0  0  0  0  0  0  0  0  0
   -0.0046    0.0004    0.1561 C   0  0  0  0  0  0  0  0  0  0  0  0
   -1.4546    0.0003    0.2019 C   0  0  0  0  0  0  0  0  0  0  0  0
    0.6885   -1.2076    0.1328 C   0  0  0  0  0  0  0  0  0  0  0  0
    0.6890    1.2082    0.1338 C   0  0  0  0  0  0  0  0  0  0  0  0
   -2.2271    0.0014   -0.9595 C   0  0  0  0  0  0  0  0  0  0  0  0
   -2.0742   -0.0013    1.4516 C   0  0  0  0  0  0  0  0  0  0  0  0
    2.0831    1.2079    0.0879 C   0  0  0  0  0  0  0  0  0  0  0  0
    2.0825   -1.2080    0.0868 C   0  0  0  0  0  0  0  0  0  0  0  0
    2.7799   -0.0001    0.0646 C   0  0  0  0  0  0  0  0  0  0  0  0
   -3.6191    0.0012   -0.8713 C   0  0  0  0  0  0  0  0  0  0  0  0
   -3.4663   -0.0017    1.5399 C   0  0  0  0  0  0  0  0  0  0  0  0
   -4.2387   -0.0004    0.3785 C   0  0  0  0  0  0  0  0  0  0  0  0
    0.1423   -2.1491    0.1495 H   0  0  0  0  0  0  0  0  0  0  0  0
    0.1434    2.1499    0.1515 H   0  0  0  0  0  0  0  0  0  0  0  0
   -1.4894   -0.0024    2.3687 H   0  0  0  0  0  0  0  0  0  0  0  0
   -4.2363    0.0021   -1.7662 H   0  0  0  0  0  0  0  0  0  0  0  0
   -3.9489   -0.0030    2.5129 H   0  0  0  0  0  0  0  0  0  0  0  0
   -5.3225   -0.0007    0.4474 H   0  0  0  0  0  0  0  0  0  0  0  0
  1  9  1  0  0  0  0
  2 11  1  0  0  0  0
  3 12  1  0  0  0  0
  4 13  1  0  0  0  0
  5  6  1  0  0  0  0
  5  7  2  0  0  0  0
  5  8  1  0  0  0  0
  6  9  1  0  0  0  0
  6 10  2  0  0  0  0
  7 12  1  0  0  0  0
  7 17  1  0  0  0  0
  8 11  2  0  0  0  0
  8 18  1  0  0  0  0
  9 14  2  0  0  0  0
 10 15  1  0  0  0  0
 10 19  1  0  0  0  0
 11 13  1  0  0  0  0
 12 13  2  0  0  0  0
 14 16  1  0  0  0  0
 14 20  1  0  0  0  0
 15 16  2  0  0  0  0
 15 21  1  0  0  0  0
 16 22  1  0  0  0  0
M  END
> <PUBCHEM_COMPOUND_CID>
51042

> <PUBCHEM_CONFORMER_RMSD>
0.6

> <PUBCHEM_CONFORMER_DIVERSEORDER>
1
2
3

> <PUBCHEM_MMFF94_PARTIAL_CHARGES>
20
1 -0.18
10 -0.15
11 0.18
12 0.18
13 0.18
14 -0.15
15 -0.15
16 -0.15
17 0.15
18 0.15
19 0.15
2 -0.18
20 0.15
21 0.15
22 0.15
3 -0.18
4 -0.18
7 -0.15
8 -0.15
9 0.18

> <PUBCHEM_EFFECTIVE_ROTOR_COUNT>
1

> <PUBCHEM_PHARMACOPHORE_FEATURES>
2
6 5 7 8 11 12 13 rings
6 6 9 10 14 15 16 rings

> <PUBCHEM_HEAVY_ATOM_COUNT>
16

> <PUBCHEM_ATOM_DEF_STEREO_COUNT>
0

> <PUBCHEM_ATOM_UDEF_STEREO_COUNT>
0

> <PUBCHEM_BOND_DEF_STEREO_COUNT>
0

> <PUBCHEM_BOND_UDEF_STEREO_COUNT>
0

> <PUBCHEM_ISOTOPIC_ATOM_COUNT>
0

> <PUBCHEM_COMPONENT_COUNT>
1

> <PUBCHEM_CACTVS_TAUTO_COUNT>
1

> <PUBCHEM_CONFORMER_ID>
0000C76200000001

> <PUBCHEM_MMFF94_ENERGY>
46.3307

> <PUBCHEM_FEATURE_SELFOVERLAP>
10.149

> <PUBCHEM_SHAPE_FINGERPRINT>
11471102 20 18409731764014341224
11615757 297 18342178881652147433
12236239 1 17703791418490761939
12553582 1 18125440809245341926
13140716 1 18266456697559229056
13538477 17 17203316849583666799
13581323 91 15140952972094858897
15219456 202 17967812777502451313
15279307 12 17846494859116733511
15309172 13 18409451409723628875
15342168 16 18046912850796099797
15375462 189 17988924457275397210
15653759 3 17095519612688882168
15669948 3 16630519687293558893
16945 1 18410854361128185050
17844478 74 17821730524580510005
1813 80 17914628159296417662
18175812 5 17749392606532587109
18186145 218 18341334499977955268
19049666 15 17532921723539306741
19422 9 17846217795303095895
19784866 34 18198340869576231776
200 152 18343578547438617491
20279233 1 17749112183886388619
204376 136 18193276523387307824
20645476 183 17846493760000484815
20645477 70 18336819784627310055
21486144 27 18261110824147462113
21639500 275 18339633546662415816
22112679 90 17346593101444621065
2255824 54 18343024393578452206
22854114 111 18341053003246826872
232386 152 16415182503614497055
23402539 116 15051729764207217441
23526113 38 17896308139134535698
23557571 272 16877942728635784701
23559900 14 16515676707074014770
23598291 2 17917989528923473596
31174 14 18334017176732255450
3286 77 18260834752419146259
474 4 18199742725437235920
6049 1 17821730494404917261
633830 44 18129675221739017132
7615 1 17774997973338535177
77492 1 17703790323258270657
81228 2 17111828385696852714
8272917 22 18270972245543185839
9981440 41 16479064344464578344

> <PUBCHEM_SHAPE_MULTIPOLES>
336.75
7.63
1.99
1.45
0.9
0
-0.73
0
0.82
-3.34
0.1
1.77
0
0

> <PUBCHEM_SHAPE_SELFOVERLAP>
694.611

> <PUBCHEM_SHAPE_VOLUME>
186.6

> <PUBCHEM_COORDINATE_TYPE>
2
5
10

$$$$
