51043
  -OEChem-03192123153D

 22 23  0     0  0  0  0  0  0999 V2000
   -3.1614   -2.7288   -0.2878 Cl  0  0  0  0  0  0  0  0  0  0  0  0
   -3.1573    2.7303    0.2856 Cl  0  0  0  0  0  0  0  0  0  0  0  0
   -4.7990    0.0019    0.0016 Cl  0  0  0  0  0  0  0  0  0  0  0  0
    5.6867    0.0012    0.0004 Cl  0  0  0  0  0  0  0  0  0  0  0  0
   -0.2709   -0.0009    0.0010 C   0  0  0  0  0  0  0  0  0  0  0  0
    1.1760   -0.0010   -0.0001 C   0  0  0  0  0  0  0  0  0  0  0  0
   -0.9679    1.2006    0.1271 C   0  0  0  0  0  0  0  0  0  0  0  0
   -0.9689   -1.2019   -0.1259 C   0  0  0  0  0  0  0  0  0  0  0  0
    1.8731    1.1023   -0.4926 C   0  0  0  0  0  0  0  0  0  0  0  0
    1.8740   -1.1037    0.4923 C   0  0  0  0  0  0  0  0  0  0  0  0
   -2.3638   -1.2013   -0.1266 C   0  0  0  0  0  0  0  0  0  0  0  0
   -2.3627    1.2013    0.1263 C   0  0  0  0  0  0  0  0  0  0  0  0
   -3.0607    0.0004   -0.0004 C   0  0  0  0  0  0  0  0  0  0  0  0
    3.2680    1.1029   -0.4927 C   0  0  0  0  0  0  0  0  0  0  0  0
    3.2689   -1.1032    0.4922 C   0  0  0  0  0  0  0  0  0  0  0  0
    3.9658    0.0000   -0.0005 C   0  0  0  0  0  0  0  0  0  0  0  0
   -0.4500    2.1477    0.2592 H   0  0  0  0  0  0  0  0  0  0  0  0
   -0.4517   -2.1494   -0.2578 H   0  0  0  0  0  0  0  0  0  0  0  0
    1.3739    1.9699   -0.9152 H   0  0  0  0  0  0  0  0  0  0  0  0
    1.3753   -1.9715    0.9152 H   0  0  0  0  0  0  0  0  0  0  0  0
    3.7985    1.9665   -0.8858 H   0  0  0  0  0  0  0  0  0  0  0  0
    3.8001   -1.9662    0.8855 H   0  0  0  0  0  0  0  0  0  0  0  0
  1 11  1  0  0  0  0
  2 12  1  0  0  0  0
  3 13  1  0  0  0  0
  4 16  1  0  0  0  0
  5  6  1  0  0  0  0
  5  7  2  0  0  0  0
  5  8  1  0  0  0  0
  6  9  2  0  0  0  0
  6 10  1  0  0  0  0
  7 12  1  0  0  0  0
  7 17  1  0  0  0  0
  8 11  2  0  0  0  0
  8 18  1  0  0  0  0
  9 14  1  0  0  0  0
  9 19  1  0  0  0  0
 10 15  2  0  0  0  0
 10 20  1  0  0  0  0
 11 13  1  0  0  0  0
 12 13  2  0  0  0  0
 14 16  2  0  0  0  0
 14 21  1  0  0  0  0
 15 16  1  0  0  0  0
 15 22  1  0  0  0  0
M  END
> <PUBCHEM_COMPOUND_CID>
51043

> <PUBCHEM_CONFORMER_RMSD>
0.6

> <PUBCHEM_CONFORMER_DIVERSEORDER>
1

> <PUBCHEM_MMFF94_PARTIAL_CHARGES>
20
1 -0.18
10 -0.15
11 0.18
12 0.18
13 0.18
14 -0.15
15 -0.15
16 0.18
17 0.15
18 0.15
19 0.15
2 -0.18
20 0.15
21 0.15
22 0.15
3 -0.18
4 -0.18
7 -0.15
8 -0.15
9 -0.15

> <PUBCHEM_EFFECTIVE_ROTOR_COUNT>
1

> <PUBCHEM_PHARMACOPHORE_FEATURES>
2
6 5 7 8 11 12 13 rings
6 6 9 10 14 15 16 rings

> <PUBCHEM_HEAVY_ATOM_COUNT>
16

> <PUBCHEM_ATOM_DEF_STEREO_COUNT>
0

> <PUBCHEM_ATOM_UDEF_STEREO_COUNT>
0

> <PUBCHEM_BOND_DEF_STEREO_COUNT>
0

> <PUBCHEM_BOND_UDEF_STEREO_COUNT>
0

> <PUBCHEM_ISOTOPIC_ATOM_COUNT>
0

> <PUBCHEM_COMPONENT_COUNT>
1

> <PUBCHEM_CACTVS_TAUTO_COUNT>
1

> <PUBCHEM_CONFORMER_ID>
0000C76300000001

> <PUBCHEM_MMFF94_ENERGY>
46.9532

> <PUBCHEM_FEATURE_SELFOVERLAP>
10.149

> <PUBCHEM_SHAPE_FINGERPRINT>
10616163 171 18411982489622706462
11806522 49 18262797488418083030
12107183 9 17759799252319574130
12173636 292 18412820283365231655
12236239 1 18113899359977981584
12251169 10 18408604751246784284
12390115 104 17986407598335881521
12500047 106 18341607066833693984
12553582 1 18053094318437545031
13140716 1 18197222649407816507
13167823 11 18335138687562518170
13288520 33 18413673513168302246
13760787 19 18335139803963942606
14144814 61 18336264561419774256
14178342 30 18336811027557947162
14508225 48 18268695281816930709
15042514 8 18339647858010748567
15196674 1 18337672997286772176
15442244 35 18264204708392656914
15669948 3 18341888610725105671
16945 1 18413670210496590087
17802600 8 18411133640918171672
17834072 33 18334579079320279244
18186145 218 17095795624556850026
18522853 276 18410573989684035696
19050596 39 18336264630155107722
19422 9 18335421296236489118
200 152 18336823181946083831
20279233 1 16415203390172339430
20510252 161 18201441316393882617
20645477 56 18341615876038568833
21267235 1 18336274491394822466
21426921 1 18412825802371826455
21501502 16 18335139795463328012
221490 88 18191593149515056474
2306618 200 18130797762954612697
23175994 123 16774083977094200232
23402539 116 18412257371971797855
23402655 69 18261109651827170788
23463225 33 18335701615745521918
23557571 272 18060142015977205184
23559900 14 18342449396025637400
26918003 58 17748829639462613459
2748010 2 15671258808183012941
3312278 4 18336827584509212267
34797466 226 17703799154328729628
3545911 37 18410856555592807118
4214541 1 18410855438875124756
474 4 17531536498256202204
5104073 3 18338516451591206408
559249 180 18264202513748966066
57096353 35 18190182471685647414
573450 72 18335691729094758298
58051976 100 18410011061004939094
58051976 378 18341895190430413046
67856867 119 18191021403769826028
69090 78 18411417293796384991
77779 3 18411420605390146070
9709674 26 18343025458245331070

> <PUBCHEM_SHAPE_MULTIPOLES>
336.75
9.8
2.27
0.7
6.98
0
0
0
0
-2.93
0
0.11
0
-0.72

> <PUBCHEM_SHAPE_SELFOVERLAP>
694.425

> <PUBCHEM_SHAPE_VOLUME>
185.7

> <PUBCHEM_COORDINATE_TYPE>
2
5
10

$$$$
