93441
  -OEChem-03192122223D

 22 23  0     0  0  0  0  0  0999 V2000
   -1.2822   -0.3866    2.7132 Cl  0  0  0  0  0  0  0  0  0  0  0  0
   -1.2836    0.3858   -2.7136 Cl  0  0  0  0  0  0  0  0  0  0  0  0
    2.9541    2.7174    0.3861 Cl  0  0  0  0  0  0  0  0  0  0  0  0
    2.9547   -2.7171   -0.3857 Cl  0  0  0  0  0  0  0  0  0  0  0  0
    4.5939    0.0002    0.0008 Cl  0  0  0  0  0  0  0  0  0  0  0  0
    0.0655   -0.0001   -0.0005 C   0  0  0  0  0  0  0  0  0  0  0  0
   -1.3814   -0.0003   -0.0002 C   0  0  0  0  0  0  0  0  0  0  0  0
    0.7632   -1.1960   -0.1704 C   0  0  0  0  0  0  0  0  0  0  0  0
    0.7631    1.1960    0.1691 C   0  0  0  0  0  0  0  0  0  0  0  0
   -2.0871   -0.1700    1.1960 C   0  0  0  0  0  0  0  0  0  0  0  0
   -2.0876    0.1698   -1.1959 C   0  0  0  0  0  0  0  0  0  0  0  0
    2.1581    1.1962    0.1695 C   0  0  0  0  0  0  0  0  0  0  0  0
    2.1583   -1.1959   -0.1702 C   0  0  0  0  0  0  0  0  0  0  0  0
    2.8556    0.0001    0.0000 C   0  0  0  0  0  0  0  0  0  0  0  0
   -3.4822   -0.1701    1.1967 C   0  0  0  0  0  0  0  0  0  0  0  0
   -3.4825    0.1703   -1.1955 C   0  0  0  0  0  0  0  0  0  0  0  0
   -4.1798    0.0003    0.0007 C   0  0  0  0  0  0  0  0  0  0  0  0
    0.2177   -2.1288   -0.3027 H   0  0  0  0  0  0  0  0  0  0  0  0
    0.2173    2.1286    0.3015 H   0  0  0  0  0  0  0  0  0  0  0  0
   -4.0416   -0.3013    2.1194 H   0  0  0  0  0  0  0  0  0  0  0  0
   -4.0425    0.3017   -2.1180 H   0  0  0  0  0  0  0  0  0  0  0  0
   -5.2659    0.0005    0.0009 H   0  0  0  0  0  0  0  0  0  0  0  0
  1 10  1  0  0  0  0
  2 11  1  0  0  0  0
  3 12  1  0  0  0  0
  4 13  1  0  0  0  0
  5 14  1  0  0  0  0
  6  7  1  0  0  0  0
  6  8  2  0  0  0  0
  6  9  1  0  0  0  0
  7 10  2  0  0  0  0
  7 11  1  0  0  0  0
  8 13  1  0  0  0  0
  8 18  1  0  0  0  0
  9 12  2  0  0  0  0
  9 19  1  0  0  0  0
 10 15  1  0  0  0  0
 11 16  2  0  0  0  0
 12 14  1  0  0  0  0
 13 14  2  0  0  0  0
 15 17  2  0  0  0  0
 15 20  1  0  0  0  0
 16 17  1  0  0  0  0
 16 21  1  0  0  0  0
 17 22  1  0  0  0  0
M  END
> <PUBCHEM_COMPOUND_CID>
93441

> <PUBCHEM_CONFORMER_RMSD>
0.6

> <PUBCHEM_CONFORMER_DIVERSEORDER>
1

> <PUBCHEM_MMFF94_PARTIAL_CHARGES>
20
1 -0.18
10 0.18
11 0.18
12 0.18
13 0.18
14 0.18
15 -0.15
16 -0.15
17 -0.15
18 0.15
19 0.15
2 -0.18
20 0.15
21 0.15
22 0.15
3 -0.18
4 -0.18
5 -0.18
8 -0.15
9 -0.15

> <PUBCHEM_EFFECTIVE_ROTOR_COUNT>
1

> <PUBCHEM_PHARMACOPHORE_FEATURES>
2
6 6 8 9 12 13 14 rings
6 7 10 11 15 16 17 rings

> <PUBCHEM_HEAVY_ATOM_COUNT>
17

> <PUBCHEM_ATOM_DEF_STEREO_COUNT>
0

> <PUBCHEM_ATOM_UDEF_STEREO_COUNT>
0

> <PUBCHEM_BOND_DEF_STEREO_COUNT>
0

> <PUBCHEM_BOND_UDEF_STEREO_COUNT>
0

> <PUBCHEM_ISOTOPIC_ATOM_COUNT>
0

> <PUBCHEM_COMPONENT_COUNT>
1

> <PUBCHEM_CACTVS_TAUTO_COUNT>
1

> <PUBCHEM_CONFORMER_ID>
00016D0100000001

> <PUBCHEM_MMFF94_ENERGY>
48.5318

> <PUBCHEM_FEATURE_SELFOVERLAP>
10.149

> <PUBCHEM_SHAPE_FINGERPRINT>
10366900 7 18040719173100019650
11471102 20 18412263943646098908
11582403 64 16672114237678878572
11640471 11 17561091357482729496
12236239 1 17489870436100992491
12500047 106 16732978743252914706
13140716 1 18268987773363338034
13538477 17 16773506741799964375
13581323 91 15647044980173132593
15219456 202 18114179769602576625
15342168 16 18121781896050452652
15375358 24 17967817154216472986
15375462 175 16081371817362422513
15375462 189 17417808465507435283
15653759 3 17458340862116833328
15669948 3 16128366121112526965
16752209 62 15913326875642293925
16945 1 18413107264737915782
1813 80 17773048449381869734
18175812 5 17967816093079917453
18186145 218 18271807981717723732
19049666 15 17750787757765149104
19422 9 17632576084613967063
19765921 60 17343491499449280840
200 152 18202842158399770899
20279233 1 17894917316807118691
204376 136 18196089074199724112
20510252 161 16732977588102085797
20600515 1 16443354186267447455
20645476 183 17632854252655848559
20645477 70 18338231566331918926
21486144 27 18334292114763544797
21639500 275 18342449395983348192
22112679 90 16917348155675465345
2255824 54 18273498974872053086
23175994 123 18261679185986640268
232386 152 15984522486427924982
23402539 116 16660357104208668751
23526113 38 18042118778567297330
23557571 272 17240484706146863181
23559900 14 17022897913831391234
23598291 2 17488473961982002510
23728640 28 15457061053427018371
3286 77 18335706000981114143
4409770 3 15537892835894657630
474 4 17986945439815376016
6049 1 17968378957207911093
633830 44 17987815131974838980
77492 1 17489869336594632967
81228 2 17257645626478419882
8272917 22 18201166455518926111
9981440 41 16121587817054247432

> <PUBCHEM_SHAPE_MULTIPOLES>
359.2
7.31
1.9
1.9
0.56
0
0
0
0
3.14
0
-2.07
0
0.72

> <PUBCHEM_SHAPE_SELFOVERLAP>
734.288

> <PUBCHEM_SHAPE_VOLUME>
201.1

> <PUBCHEM_COORDINATE_TYPE>
2
5
10

$$$$
