49853406
  -OEChem-03212101033D

 25 25  0     1  0  0  0  0  0999 V2000
   -4.2448    0.4914   -0.2191 F   0  0  0  0  0  0  0  0  0  0  0  0
    1.5914   -1.7606    0.5673 O   0  0  0  0  0  0  0  0  0  0  0  0
    3.1209    0.2737   -0.8653 N   0  0  0  0  0  0  0  0  0  0  0  0
    2.2463    0.5429    0.2776 C   0  0  1  0  0  0  0  0  0  0  0  0
    1.2009   -0.5899    0.3711 C   0  0  0  0  0  0  0  0  0  0  0  0
   -0.2178   -0.3085    0.2180 C   0  0  0  0  0  0  0  0  0  0  0  0
    3.0771    0.6037    1.5529 C   0  0  0  0  0  0  0  0  0  0  0  0
   -0.7277    0.9322    0.6004 C   0  0  0  0  0  0  0  0  0  0  0  0
   -1.0683   -1.2788   -0.3119 C   0  0  0  0  0  0  0  0  0  0  0  0
    2.4775    0.6677   -2.1082 C   0  0  0  0  0  0  0  0  0  0  0  0
   -2.0881    1.2026    0.4532 C   0  0  0  0  0  0  0  0  0  0  0  0
   -2.4287   -1.0085   -0.4592 C   0  0  0  0  0  0  0  0  0  0  0  0
   -2.9387    0.2321   -0.0766 C   0  0  0  0  0  0  0  0  0  0  0  0
    1.7780    1.5223    0.1501 H   0  0  0  0  0  0  0  0  0  0  0  0
    2.4318    0.7666    2.4233 H   0  0  0  0  0  0  0  0  0  0  0  0
    3.8035    1.4229    1.5148 H   0  0  0  0  0  0  0  0  0  0  0  0
    3.6264   -0.3289    1.7261 H   0  0  0  0  0  0  0  0  0  0  0  0
    3.9845    0.8078   -0.7674 H   0  0  0  0  0  0  0  0  0  0  0  0
   -0.1062    1.7004    1.0496 H   0  0  0  0  0  0  0  0  0  0  0  0
   -0.6892   -2.2496   -0.6206 H   0  0  0  0  0  0  0  0  0  0  0  0
    2.2377    1.7362   -2.1222 H   0  0  0  0  0  0  0  0  0  0  0  0
    3.1583    0.4722   -2.9430 H   0  0  0  0  0  0  0  0  0  0  0  0
    1.5660    0.0927   -2.2982 H   0  0  0  0  0  0  0  0  0  0  0  0
   -2.4874    2.1656    0.7578 H   0  0  0  0  0  0  0  0  0  0  0  0
   -3.0911   -1.7631   -0.8729 H   0  0  0  0  0  0  0  0  0  0  0  0
  1 13  1  0  0  0  0
  2  5  2  0  0  0  0
  3  4  1  0  0  0  0
  3 10  1  0  0  0  0
  3 18  1  0  0  0  0
  4  5  1  0  0  0  0
  4  7  1  0  0  0  0
  4 14  1  0  0  0  0
  5  6  1  0  0  0  0
  6  8  2  0  0  0  0
  6  9  1  0  0  0  0
  7 15  1  0  0  0  0
  7 16  1  0  0  0  0
  7 17  1  0  0  0  0
  8 11  1  0  0  0  0
  8 19  1  0  0  0  0
  9 12  2  0  0  0  0
  9 20  1  0  0  0  0
 10 21  1  0  0  0  0
 10 22  1  0  0  0  0
 10 23  1  0  0  0  0
 11 13  2  0  0  0  0
 11 24  1  0  0  0  0
 12 13  1  0  0  0  0
 12 25  1  0  0  0  0
M  END
> <PUBCHEM_COMPOUND_CID>
49853406

> <PUBCHEM_CONFORMER_RMSD>
0.6

> <PUBCHEM_CONFORMER_DIVERSEORDER>
1
12
13
3
19
10
8
11
6
14
4
17
20
5
9
7
15
18
16
2

> <PUBCHEM_MMFF94_PARTIAL_CHARGES>
17
1 -0.19
10 0.27
11 -0.15
12 -0.15
13 0.19
18 0.36
19 0.15
2 -0.57
20 0.15
24 0.15
25 0.15
3 -0.9
4 0.33
5 0.42
6 0.09
8 -0.15
9 -0.15

> <PUBCHEM_EFFECTIVE_ROTOR_COUNT>
3

> <PUBCHEM_PHARMACOPHORE_FEATURES>
4
1 2 acceptor
1 3 cation
1 3 donor
6 6 8 9 11 12 13 rings

> <PUBCHEM_HEAVY_ATOM_COUNT>
13

> <PUBCHEM_ATOM_DEF_STEREO_COUNT>
0

> <PUBCHEM_ATOM_UDEF_STEREO_COUNT>
1

> <PUBCHEM_BOND_DEF_STEREO_COUNT>
0

> <PUBCHEM_BOND_UDEF_STEREO_COUNT>
0

> <PUBCHEM_ISOTOPIC_ATOM_COUNT>
0

> <PUBCHEM_COMPONENT_COUNT>
1

> <PUBCHEM_CACTVS_TAUTO_COUNT>
2

> <PUBCHEM_CONFORMER_ID>
02F8B3DE00000001

> <PUBCHEM_MMFF94_ENERGY>
28.744

> <PUBCHEM_FEATURE_SELFOVERLAP>
20.297

> <PUBCHEM_SHAPE_FINGERPRINT>
11031198 65 18187375323752093946
12326174 3 16732983090160757722
12897270 3 18131071545222915418
12932764 1 18272934907862949531
13296908 3 17774724263536114391
15219456 202 16988563545518470104
15775835 57 18261114097128962580
16945 1 18411136965449251041
18186145 218 17846500288292856097
19026448 5 17022617598458641419
19786989 88 17022622000320370679
20201158 50 16559043674724324550
20279233 1 17203327835999187990
20539784 86 15068339034127344076
20559304 39 18337948996143283458
20645476 183 18261399978700148431
20645477 70 15626509375757958037
20671657 53 15840733798125246884
22802520 49 17346053194059041726
23402539 116 17846200203338662296
23552423 10 18263924337096298091
23557571 272 17702383051211469350
23559900 14 18202004365685296300
2748010 2 17983002655473608425
3248919 1 17894908538025756539
4990 188 17275107210962172389
7364860 26 18058723598933388946
8030462 33 18412548682317958659

> <PUBCHEM_SHAPE_MULTIPOLES>
249.41
5.84
1.36
1.3
1.64
0.15
0.38
0.65
1.23
-0.13
-0.11
-1.24
-0.4
0.83

> <PUBCHEM_SHAPE_SELFOVERLAP>
511.143

> <PUBCHEM_SHAPE_VOLUME>
145.4

> <PUBCHEM_COORDINATE_TYPE>
2
5
10

$$$$
