91728
  -OEChem-03192122153D

 22 23  0     0  0  0  0  0  0999 V2000
   -1.3926   -0.0017    2.2800 Cl  0  0  0  0  0  0  0  0  0  0  0  0
    3.1547   -2.7448    0.0712 Cl  0  0  0  0  0  0  0  0  0  0  0  0
    3.1552    2.7444    0.0748 Cl  0  0  0  0  0  0  0  0  0  0  0  0
    4.7836   -0.0005    0.2613 Cl  0  0  0  0  0  0  0  0  0  0  0  0
   -4.5492   -0.0017    1.7440 Cl  0  0  0  0  0  0  0  0  0  0  0  0
    0.2896    0.0004   -0.2585 C   0  0  0  0  0  0  0  0  0  0  0  0
   -1.1520    0.0007   -0.4261 C   0  0  0  0  0  0  0  0  0  0  0  0
    0.9783    1.2083   -0.1780 C   0  0  0  0  0  0  0  0  0  0  0  0
    0.9781   -1.2077   -0.1793 C   0  0  0  0  0  0  0  0  0  0  0  0
   -2.0266   -0.0003    0.6606 C   0  0  0  0  0  0  0  0  0  0  0  0
   -1.6559    0.0013   -1.7269 C   0  0  0  0  0  0  0  0  0  0  0  0
    2.3639   -1.2081   -0.0189 C   0  0  0  0  0  0  0  0  0  0  0  0
    2.3641    1.2080   -0.0175 C   0  0  0  0  0  0  0  0  0  0  0  0
    3.0567   -0.0002    0.0619 C   0  0  0  0  0  0  0  0  0  0  0  0
   -3.4050   -0.0002    0.4467 C   0  0  0  0  0  0  0  0  0  0  0  0
   -3.0343    0.0012   -1.9411 C   0  0  0  0  0  0  0  0  0  0  0  0
   -3.9088    0.0008   -0.8542 C   0  0  0  0  0  0  0  0  0  0  0  0
    0.4358    2.1499   -0.2400 H   0  0  0  0  0  0  0  0  0  0  0  0
    0.4354   -2.1491   -0.2424 H   0  0  0  0  0  0  0  0  0  0  0  0
   -0.9907    0.0019   -2.5876 H   0  0  0  0  0  0  0  0  0  0  0  0
   -3.4266    0.0017   -2.9538 H   0  0  0  0  0  0  0  0  0  0  0  0
   -4.9799    0.0008   -1.0402 H   0  0  0  0  0  0  0  0  0  0  0  0
  1 10  1  0  0  0  0
  2 12  1  0  0  0  0
  3 13  1  0  0  0  0
  4 14  1  0  0  0  0
  5 15  1  0  0  0  0
  6  7  1  0  0  0  0
  6  8  2  0  0  0  0
  6  9  1  0  0  0  0
  7 10  2  0  0  0  0
  7 11  1  0  0  0  0
  8 13  1  0  0  0  0
  8 18  1  0  0  0  0
  9 12  2  0  0  0  0
  9 19  1  0  0  0  0
 10 15  1  0  0  0  0
 11 16  2  0  0  0  0
 11 20  1  0  0  0  0
 12 14  1  0  0  0  0
 13 14  2  0  0  0  0
 15 17  2  0  0  0  0
 16 17  1  0  0  0  0
 16 21  1  0  0  0  0
 17 22  1  0  0  0  0
M  END
> <PUBCHEM_COMPOUND_CID>
91728

> <PUBCHEM_CONFORMER_RMSD>
0.6

> <PUBCHEM_CONFORMER_DIVERSEORDER>
1
2
3

> <PUBCHEM_MMFF94_PARTIAL_CHARGES>
20
1 -0.18
10 0.18
11 -0.15
12 0.18
13 0.18
14 0.18
15 0.18
16 -0.15
17 -0.15
18 0.15
19 0.15
2 -0.18
20 0.15
21 0.15
22 0.15
3 -0.18
4 -0.18
5 -0.18
8 -0.15
9 -0.15

> <PUBCHEM_EFFECTIVE_ROTOR_COUNT>
1

> <PUBCHEM_PHARMACOPHORE_FEATURES>
2
6 6 8 9 12 13 14 rings
6 7 10 11 15 16 17 rings

> <PUBCHEM_HEAVY_ATOM_COUNT>
17

> <PUBCHEM_ATOM_DEF_STEREO_COUNT>
0

> <PUBCHEM_ATOM_UDEF_STEREO_COUNT>
0

> <PUBCHEM_BOND_DEF_STEREO_COUNT>
0

> <PUBCHEM_BOND_UDEF_STEREO_COUNT>
0

> <PUBCHEM_ISOTOPIC_ATOM_COUNT>
0

> <PUBCHEM_COMPONENT_COUNT>
1

> <PUBCHEM_CACTVS_TAUTO_COUNT>
1

> <PUBCHEM_CONFORMER_ID>
0001665000000001

> <PUBCHEM_MMFF94_ENERGY>
49.1642

> <PUBCHEM_FEATURE_SELFOVERLAP>
10.149

> <PUBCHEM_SHAPE_FINGERPRINT>
11471102 20 18409724071886182796
11582403 64 16453128917589964893
11640471 11 17703241692446616433
11796584 16 16371555978701402738
12236239 1 17704069599079876535
12403814 3 18060704966500319609
12500047 106 16298657339492510234
12553582 1 18197218036413357470
13134695 92 18336816495177681500
13140716 1 18266454498609819840
13296908 3 17603586309517659079
13538477 17 16988561290597388143
13581323 91 15357692019913739745
13583140 156 18343029887078962209
14386348 63 17676490531619338491
15219456 202 17967529099144188429
15342168 16 18121227729278719365
15375358 24 17821725035728304650
15375462 189 17775002405660317139
15653759 3 17240198845982240580
15842332 3 17774713242692179367
16752209 62 16200425888720294605
16945 1 18410851066983214622
1813 80 17914630358346047046
18186145 218 18341612672082565540
19049666 15 17604982628960109677
19141452 34 17822588191628383355
19422 9 17846776330061909031
200 152 18272078405563870047
20279233 1 17748825202524233871
204376 136 18193272125435742188
20510252 161 16660364779499875749
20600515 1 16225760792333898230
20645477 70 18263912276622454878
21041028 32 18196939868486961952
21065201 7 16153700994819484403
21639500 275 18339915025971023676
22112679 90 17275383218076457857
2255824 54 18343300366797080454
22943178 12 17749385953728543991
23175994 123 18186520969016017868
23402539 116 15410891842631556025
23526113 38 17896585207490546754
23557571 272 17095242518842447437
23559900 14 16660915583290961018
23598291 2 17846214496494256964
31174 14 18334020483798966602
3286 77 18188504483913777747
474 4 18200024196182250192
573450 72 16773790381477251911
602551 16 16153713154003853144
6049 1 17821730494426048901
633830 44 18058180586175899460
7615 1 17703497848791349605
77492 1 17703787028918134501
81228 2 17328011080747999850
90316 7 16773229583544968011
9981440 41 16407286026406440264

> <PUBCHEM_SHAPE_MULTIPOLES>
359.2
8.54
1.9
1.63
0.76
0
0.25
0
1.23
-3.51
0.04
2.49
0
0

> <PUBCHEM_SHAPE_SELFOVERLAP>
734.003

> <PUBCHEM_SHAPE_VOLUME>
201.3

> <PUBCHEM_COORDINATE_TYPE>
2
5
10

$$$$
