13271
  -OEChem-03212101193D

 26 27  0     0  0  0  0  0  0999 V2000
   -5.0613    0.3205   -0.4433 O   0  5  0  0  0  0  0  0  0  0  0  0
   -4.4943   -1.6097    0.4352 O   0  0  0  0  0  0  0  0  0  0  0  0
    1.1810    1.1627    0.1128 N   0  0  0  0  0  0  0  0  0  0  0  0
   -4.1959   -0.4686    0.0072 N   0  3  0  0  0  0  0  0  0  0  0  0
   -0.1667    0.7545    0.0881 C   0  0  0  0  0  0  0  0  0  0  0  0
    2.3960    0.4531    0.0158 C   0  0  0  0  0  0  0  0  0  0  0  0
   -1.1481    1.6124   -0.4107 C   0  0  0  0  0  0  0  0  0  0  0  0
   -0.5228   -0.5102    0.5594 C   0  0  0  0  0  0  0  0  0  0  0  0
   -2.8370   -0.0576    0.0331 C   0  0  0  0  0  0  0  0  0  0  0  0
   -2.4825    1.2066   -0.4380 C   0  0  0  0  0  0  0  0  0  0  0  0
   -1.8571   -0.9159    0.5317 C   0  0  0  0  0  0  0  0  0  0  0  0
    3.5371    0.9331    0.6585 C   0  0  0  0  0  0  0  0  0  0  0  0
    2.4563   -0.7291   -0.7219 C   0  0  0  0  0  0  0  0  0  0  0  0
    4.7387    0.2310    0.5634 C   0  0  0  0  0  0  0  0  0  0  0  0
    3.6578   -1.4313   -0.8170 C   0  0  0  0  0  0  0  0  0  0  0  0
    4.7990   -0.9512   -0.1743 C   0  0  0  0  0  0  0  0  0  0  0  0
    1.3024    2.1659    0.2209 H   0  0  0  0  0  0  0  0  0  0  0  0
   -0.8840    2.5993   -0.7821 H   0  0  0  0  0  0  0  0  0  0  0  0
    0.2159   -1.1910    0.9736 H   0  0  0  0  0  0  0  0  0  0  0  0
   -3.2186    1.9018   -0.8335 H   0  0  0  0  0  0  0  0  0  0  0  0
   -2.0974   -1.9056    0.9117 H   0  0  0  0  0  0  0  0  0  0  0  0
    3.5025    1.8526    1.2373 H   0  0  0  0  0  0  0  0  0  0  0  0
    1.5895   -1.1150   -1.2513 H   0  0  0  0  0  0  0  0  0  0  0  0
    5.6272    0.6047    1.0637 H   0  0  0  0  0  0  0  0  0  0  0  0
    3.7064   -2.3492   -1.3956 H   0  0  0  0  0  0  0  0  0  0  0  0
    5.7348   -1.4973   -0.2493 H   0  0  0  0  0  0  0  0  0  0  0  0
  1  4  1  0  0  0  0
  2  4  2  0  0  0  0
  3  5  1  0  0  0  0
  3  6  1  0  0  0  0
  3 17  1  0  0  0  0
  4  9  1  0  0  0  0
  5  7  2  0  0  0  0
  5  8  1  0  0  0  0
  6 12  2  0  0  0  0
  6 13  1  0  0  0  0
  7 10  1  0  0  0  0
  7 18  1  0  0  0  0
  8 11  2  0  0  0  0
  8 19  1  0  0  0  0
  9 10  2  0  0  0  0
  9 11  1  0  0  0  0
 10 20  1  0  0  0  0
 11 21  1  0  0  0  0
 12 14  1  0  0  0  0
 12 22  1  0  0  0  0
 13 15  2  0  0  0  0
 13 23  1  0  0  0  0
 14 16  2  0  0  0  0
 14 24  1  0  0  0  0
 15 16  1  0  0  0  0
 15 25  1  0  0  0  0
 16 26  1  0  0  0  0
M  CHG  2   1  -1   4   1
M  END
> <PUBCHEM_COMPOUND_CID>
13271

> <PUBCHEM_CONFORMER_RMSD>
0.6

> <PUBCHEM_CONFORMER_DIVERSEORDER>
1
3
2

> <PUBCHEM_MMFF94_PARTIAL_CHARGES>
26
1 -0.52
10 -0.15
11 -0.15
12 -0.15
13 -0.15
14 -0.15
15 -0.15
16 -0.15
17 0.4
18 0.15
19 0.15
2 -0.52
20 0.15
21 0.15
22 0.15
23 0.15
24 0.15
25 0.15
26 0.15
3 -0.6
4 0.91
5 0.1
6 0.1
7 -0.15
8 -0.15
9 0.13

> <PUBCHEM_EFFECTIVE_ROTOR_COUNT>
3

> <PUBCHEM_PHARMACOPHORE_FEATURES>
7
1 1 acceptor
1 1 anion
1 2 acceptor
1 3 cation
1 3 donor
6 5 7 8 9 10 11 rings
6 6 12 13 14 15 16 rings

> <PUBCHEM_HEAVY_ATOM_COUNT>
16

> <PUBCHEM_ATOM_DEF_STEREO_COUNT>
0

> <PUBCHEM_ATOM_UDEF_STEREO_COUNT>
0

> <PUBCHEM_BOND_DEF_STEREO_COUNT>
0

> <PUBCHEM_BOND_UDEF_STEREO_COUNT>
0

> <PUBCHEM_ISOTOPIC_ATOM_COUNT>
0

> <PUBCHEM_COMPONENT_COUNT>
1

> <PUBCHEM_CACTVS_TAUTO_COUNT>
1

> <PUBCHEM_CONFORMER_ID>
000033D700000001

> <PUBCHEM_MMFF94_ENERGY>
62.459

> <PUBCHEM_FEATURE_SELFOVERLAP>
35.602

> <PUBCHEM_SHAPE_FINGERPRINT>
11543360 7 13840270337762247305
12032990 46 18335706074222190585
12236239 1 16153705418968167208
13288520 33 18408605838063427228
13296908 3 18341332206549574836
14115302 16 17313392257164720666
14123238 8 18202001036183418964
14252887 29 17489595537067404430
14386348 63 18411420613658437730
14993402 34 16081091480246116109
15196674 1 18410293613991891558
15375358 24 18410855473403538378
17834072 8 18187639198664859029
19141452 34 18272652385362955871
1986462 14 18260830358456534588
200 152 17775563126335852969
20279233 1 18410860958124222114
20374829 77 18334010592726745203
20645477 70 18130788911196125782
20871999 31 18040439849881170028
21065201 7 18187358784170712272
21267235 1 18408612456460447738
212847 35 9799694801213843414
22485316 2 18202843270606448535
22854114 59 17917710214758040824
23402539 116 18334005108106210519
23557571 272 18261952955660471684
23559900 14 18336264630434942344
26918003 58 18060136535403471026
2871803 45 18335984181886785154
3268164 11 17676478432923137669
33824 294 18272088280221704294
4047638 21 8358257047384577196
42 15 18343304760057825128
4214541 1 18340487772544536425
474 4 15481519063000751186
4990 188 18334294262199642163
5104073 3 18272368616715097000
542803 24 14692572134825340562
69090 78 18272366485994910830
7364860 26 18264775544054382932
9709674 26 18410016537394410634

> <PUBCHEM_SHAPE_MULTIPOLES>
307.57
10.55
1.49
0.81
1.16
0.01
-0.02
2.92
-0.02
0.16
-0.08
-0.27
0.05
1.02

> <PUBCHEM_SHAPE_SELFOVERLAP>
661.621

> <PUBCHEM_SHAPE_VOLUME>
169.3

> <PUBCHEM_COORDINATE_TYPE>
2
5
10

$$$$
