13462
  -OEChem-03212100143D

 28 31  0     0  0  0  0  0  0999 V2000
    4.4280    1.5472    0.0007 O   0  5  0  0  0  0  0  0  0  0  0  0
    4.2330   -0.6393    0.0004 O   0  0  0  0  0  0  0  0  0  0  0  0
    3.7277    0.5077    0.0000 N   0  3  0  0  0  0  0  0  0  0  0  0
    0.1076   -0.2503    0.0002 C   0  0  0  0  0  0  0  0  0  0  0  0
   -0.4663    1.0133    0.0005 C   0  0  0  0  0  0  0  0  0  0  0  0
   -0.8780   -1.2277    0.0004 C   0  0  0  0  0  0  0  0  0  0  0  0
   -1.9130    0.8450    0.0006 C   0  0  0  0  0  0  0  0  0  0  0  0
   -2.1703   -0.5564    0.0003 C   0  0  0  0  0  0  0  0  0  0  0  0
    1.4778   -0.5020   -0.0004 C   0  0  0  0  0  0  0  0  0  0  0  0
    0.3546    2.1255   -0.0002 C   0  0  0  0  0  0  0  0  0  0  0  0
    2.3105    0.6341   -0.0008 C   0  0  0  0  0  0  0  0  0  0  0  0
   -0.5058   -2.5589    0.0003 C   0  0  0  0  0  0  0  0  0  0  0  0
    1.8523   -1.8598   -0.0006 C   0  0  0  0  0  0  0  0  0  0  0  0
   -2.9468    1.7617    0.0003 C   0  0  0  0  0  0  0  0  0  0  0  0
   -3.4622   -1.0463   -0.0001 C   0  0  0  0  0  0  0  0  0  0  0  0
    1.7472    1.9287   -0.0007 C   0  0  0  0  0  0  0  0  0  0  0  0
    0.8657   -2.8696   -0.0002 C   0  0  0  0  0  0  0  0  0  0  0  0
   -4.2540    1.2663   -0.0003 C   0  0  0  0  0  0  0  0  0  0  0  0
   -4.5083   -0.1191   -0.0005 C   0  0  0  0  0  0  0  0  0  0  0  0
   -0.0533    3.1308   -0.0003 H   0  0  0  0  0  0  0  0  0  0  0  0
   -1.2438   -3.3541    0.0005 H   0  0  0  0  0  0  0  0  0  0  0  0
    2.8653   -2.2353   -0.0014 H   0  0  0  0  0  0  0  0  0  0  0  0
   -2.7631    2.8303    0.0004 H   0  0  0  0  0  0  0  0  0  0  0  0
   -3.6699   -2.1105   -0.0002 H   0  0  0  0  0  0  0  0  0  0  0  0
    2.3715    2.8201   -0.0010 H   0  0  0  0  0  0  0  0  0  0  0  0
    1.1729   -3.9131   -0.0004 H   0  0  0  0  0  0  0  0  0  0  0  0
   -5.0904    1.9607   -0.0007 H   0  0  0  0  0  0  0  0  0  0  0  0
   -5.5368   -0.4714   -0.0009 H   0  0  0  0  0  0  0  0  0  0  0  0
  1  3  1  0  0  0  0
  2  3  2  0  0  0  0
  3 11  1  0  0  0  0
  4  5  2  0  0  0  0
  4  6  1  0  0  0  0
  4  9  1  0  0  0  0
  5  7  1  0  0  0  0
  5 10  1  0  0  0  0
  6  8  1  0  0  0  0
  6 12  2  0  0  0  0
  7  8  1  0  0  0  0
  7 14  2  0  0  0  0
  8 15  2  0  0  0  0
  9 11  2  0  0  0  0
  9 13  1  0  0  0  0
 10 16  2  0  0  0  0
 10 20  1  0  0  0  0
 11 16  1  0  0  0  0
 12 17  1  0  0  0  0
 12 21  1  0  0  0  0
 13 17  2  0  0  0  0
 13 22  1  0  0  0  0
 14 18  1  0  0  0  0
 14 23  1  0  0  0  0
 15 19  1  0  0  0  0
 15 24  1  0  0  0  0
 16 25  1  0  0  0  0
 17 26  1  0  0  0  0
 18 19  2  0  0  0  0
 18 27  1  0  0  0  0
 19 28  1  0  0  0  0
M  CHG  2   1  -1   3   1
M  END
> <PUBCHEM_COMPOUND_CID>
13462

> <PUBCHEM_CONFORMER_RMSD>
0.6

> <PUBCHEM_CONFORMER_DIVERSEORDER>
1

> <PUBCHEM_MMFF94_PARTIAL_CHARGES>
22
1 -0.52
10 -0.15
11 0.13
12 -0.15
13 -0.15
14 -0.15
15 -0.15
16 -0.15
17 -0.15
18 -0.15
19 -0.15
2 -0.52
20 0.15
21 0.15
22 0.15
23 0.15
24 0.15
25 0.15
26 0.15
27 0.15
28 0.15
3 0.91

> <PUBCHEM_EFFECTIVE_ROTOR_COUNT>
1

> <PUBCHEM_PHARMACOPHORE_FEATURES>
7
1 1 acceptor
1 1 anion
1 2 acceptor
5 4 5 6 7 8 rings
6 4 5 9 10 11 16 rings
6 4 6 9 12 13 17 rings
6 7 8 14 15 18 19 rings

> <PUBCHEM_HEAVY_ATOM_COUNT>
19

> <PUBCHEM_ATOM_DEF_STEREO_COUNT>
0

> <PUBCHEM_ATOM_UDEF_STEREO_COUNT>
0

> <PUBCHEM_BOND_DEF_STEREO_COUNT>
0

> <PUBCHEM_BOND_UDEF_STEREO_COUNT>
0

> <PUBCHEM_ISOTOPIC_ATOM_COUNT>
0

> <PUBCHEM_COMPONENT_COUNT>
1

> <PUBCHEM_CACTVS_TAUTO_COUNT>
1

> <PUBCHEM_CONFORMER_ID>
0000349600000001

> <PUBCHEM_MMFF94_ENERGY>
89.8571

> <PUBCHEM_FEATURE_SELFOVERLAP>
35.908

> <PUBCHEM_SHAPE_FINGERPRINT>
10062212 137 18410564085352327067
10411042 1 17185877740775505270
10493431 412 18339642347097917200
10608611 8 18263924341765473925
10616163 171 18410857698349909695
10948715 1 18411136939436892934
10967382 1 18338516335321198343
10980938 120 18410012091944678979
11132069 177 18410288112144183704
11471102 20 18410569557377779245
11578080 2 16735790018254627975
12011746 2 18409167709784839718
12236239 1 17847063277317415369
12553582 1 17546168498261406283
12592029 89 18408606946049127403
12644460 14 18189903019459204659
13132413 78 18413107234451949629
13140716 1 17977953706558311875
13380535 76 18408604772827375651
13583140 156 16806150181187600785
138480 1 17906170655214487906
13862211 1 18410568470714545674
14790565 3 18337681892106903484
15196674 1 18410855460175654052
15309172 13 18411145753057807801
15442244 35 18051975814458273353
15536298 74 18271244915404449070
16945 1 18338799038838014151
193761 8 17762055441394766788
19591789 44 18410293648346400654
200 152 18130782387235566549
20028762 73 17985549094513964135
20510252 161 18272373087322877728
20645477 70 18270394963479064047
20905425 154 18196936560950512164
21267235 1 18411145705454815430
21421861 104 17825949213083136873
21501502 16 18339358544586282307
21524375 3 18335701667227282547
221490 88 18337118852175180419
2334 1 18410855417373856043
23366157 5 17969790674446286274
23402539 116 18271517667576635014
23463225 33 18335699407979247042
23558518 356 17684926195644829114
23559900 14 18124309407305752554
25 1 18408882923588901103
2748010 2 18338238150389819271
3091708 16 9263621292209607411
335352 9 18338516339974862206
34934 24 18340481180291547813
350125 39 18193844958003078745
352729 6 18194127536491121719
43471831 8 18336262353748867266
5104073 3 18410011030908364248
53812653 166 18413387635422936233
54173680 148 17976823408357252371
6138700 20 18266745684571591726
69090 78 18341047514135898831
7364860 26 18269274560555587343
81228 2 17473810101735303563
8272917 22 18268997496963548117
9709674 26 18410299103387941927

> <PUBCHEM_SHAPE_MULTIPOLES>
374.29
7.22
2.73
0.6
0.51
1.02
0
-2.32
0
-0.75
0
0.06
0.01
0

> <PUBCHEM_SHAPE_SELFOVERLAP>
871.303

> <PUBCHEM_SHAPE_VOLUME>
193.4

> <PUBCHEM_COORDINATE_TYPE>
2
5
10

$$$$
