7034
  -OEChem-03212100263D

 24 25  0     0  0  0  0  0  0999 V2000
   -5.2542    1.4554    0.0004 Cl  0  0  0  0  0  0  0  0  0  0  0  0
    5.2001    1.6642    0.0008 Cl  0  0  0  0  0  0  0  0  0  0  0  0
    0.0225   -2.5510   -0.0004 O   0  0  0  0  0  0  0  0  0  0  0  0
   -1.2929   -0.6171    0.0000 C   0  0  0  0  0  0  0  0  0  0  0  0
    1.2909   -0.5858   -0.0012 C   0  0  0  0  0  0  0  0  0  0  0  0
    0.0303   -1.3111   -0.0004 C   0  0  0  0  0  0  0  0  0  0  0  0
   -1.8755   -0.3122   -1.2078 C   0  0  0  0  0  0  0  0  0  0  0  0
    1.2927    0.8089   -0.0016 C   0  0  0  0  0  0  0  0  0  0  0  0
   -1.8758   -0.3127    1.2081 C   0  0  0  0  0  0  0  0  0  0  0  0
    2.4980   -1.2849    0.0002 C   0  0  0  0  0  0  0  0  0  0  0  0
   -3.1116    0.3343   -1.2078 C   0  0  0  0  0  0  0  0  0  0  0  0
    2.5016    1.5048   -0.0008 C   0  0  0  0  0  0  0  0  0  0  0  0
   -3.1118    0.3336    1.2083 C   0  0  0  0  0  0  0  0  0  0  0  0
    3.7069   -0.5892    0.0012 C   0  0  0  0  0  0  0  0  0  0  0  0
   -3.7299    0.6571    0.0003 C   0  0  0  0  0  0  0  0  0  0  0  0
    3.7088    0.8059    0.0007 C   0  0  0  0  0  0  0  0  0  0  0  0
   -1.3978   -0.5623   -2.1502 H   0  0  0  0  0  0  0  0  0  0  0  0
    0.3772    1.3926   -0.0024 H   0  0  0  0  0  0  0  0  0  0  0  0
   -1.3981   -0.5634    2.1503 H   0  0  0  0  0  0  0  0  0  0  0  0
    2.5239   -2.3714    0.0008 H   0  0  0  0  0  0  0  0  0  0  0  0
   -3.5812    0.5803   -2.1568 H   0  0  0  0  0  0  0  0  0  0  0  0
    2.4882    2.5918   -0.0012 H   0  0  0  0  0  0  0  0  0  0  0  0
   -3.5816    0.5791    2.1573 H   0  0  0  0  0  0  0  0  0  0  0  0
    4.6400   -1.1468    0.0022 H   0  0  0  0  0  0  0  0  0  0  0  0
  1 15  1  0  0  0  0
  2 16  1  0  0  0  0
  3  6  2  0  0  0  0
  4  6  1  0  0  0  0
  4  7  2  0  0  0  0
  4  9  1  0  0  0  0
  5  6  1  0  0  0  0
  5  8  2  0  0  0  0
  5 10  1  0  0  0  0
  7 11  1  0  0  0  0
  7 17  1  0  0  0  0
  8 12  1  0  0  0  0
  8 18  1  0  0  0  0
  9 13  2  0  0  0  0
  9 19  1  0  0  0  0
 10 14  2  0  0  0  0
 10 20  1  0  0  0  0
 11 15  2  0  0  0  0
 11 21  1  0  0  0  0
 12 16  2  0  0  0  0
 12 22  1  0  0  0  0
 13 15  1  0  0  0  0
 13 23  1  0  0  0  0
 14 16  1  0  0  0  0
 14 24  1  0  0  0  0
M  END
> <PUBCHEM_COMPOUND_CID>
7034

> <PUBCHEM_CONFORMER_RMSD>
0.6

> <PUBCHEM_CONFORMER_DIVERSEORDER>
1
2

> <PUBCHEM_MMFF94_PARTIAL_CHARGES>
24
1 -0.18
10 -0.15
11 -0.15
12 -0.15
13 -0.15
14 -0.15
15 0.18
16 0.18
17 0.15
18 0.15
19 0.15
2 -0.18
20 0.15
21 0.15
22 0.15
23 0.15
24 0.15
3 -0.57
4 0.09
5 0.09
6 0.4
7 -0.15
8 -0.15
9 -0.15

> <PUBCHEM_EFFECTIVE_ROTOR_COUNT>
2

> <PUBCHEM_PHARMACOPHORE_FEATURES>
3
1 3 acceptor
6 4 7 9 11 13 15 rings
6 5 8 10 12 14 16 rings

> <PUBCHEM_HEAVY_ATOM_COUNT>
16

> <PUBCHEM_ATOM_DEF_STEREO_COUNT>
0

> <PUBCHEM_ATOM_UDEF_STEREO_COUNT>
0

> <PUBCHEM_BOND_DEF_STEREO_COUNT>
0

> <PUBCHEM_BOND_UDEF_STEREO_COUNT>
0

> <PUBCHEM_ISOTOPIC_ATOM_COUNT>
0

> <PUBCHEM_COMPONENT_COUNT>
1

> <PUBCHEM_CACTVS_TAUTO_COUNT>
1

> <PUBCHEM_CONFORMER_ID>
00001B7A00000001

> <PUBCHEM_MMFF94_ENERGY>
49.0149

> <PUBCHEM_FEATURE_SELFOVERLAP>
15.223

> <PUBCHEM_SHAPE_FINGERPRINT>
10014705 185 18270961370628093584
11046707 91 7853584504058564844
11132069 177 17240486897007419263
11471102 20 18411419488540374094
11543360 7 15626223571902436552
12119455 92 18259980461991274923
12236239 1 17846777386702828845
12251169 10 15213020457510989231
12633257 1 16298392382965671301
13214271 11 18260832618162979741
13288520 33 8574445231019144880
13581323 91 14851609856074588155
13583140 156 16009290107025300236
13675066 3 17385436640326188946
14252887 29 11674878862160418256
15196674 1 18410855473197712484
15219456 202 18040719147182691819
15309172 13 18335421274471573683
15342168 16 18334863852278271301
15653759 3 17022905648513401897
15775835 57 18273213097226725373
17834072 32 18262801912113507620
1813 80 17483122540090168654
18186145 218 18413674599647458534
19049666 15 17315345930260598815
193927 3 7997690943070209296
19862831 5 17489867133228976361
200 152 18272646870719665855
20112054 13 18261112984468558756
20361792 2 8286200530824583387
204376 136 18409450301474444834
20645476 183 17632285766795557311
20645477 56 18261954149882600980
20645477 70 18340205198520447854
20871999 31 16701726246741981845
21499 59 18341892991423000975
22854114 59 18186804669033441013
22926399 37 18273495659099265321
231179 274 18260265252793397500
23402539 116 18131627902602211956
23402655 69 18131349704543071324
23559900 14 16516532079707356050
25 1 18411416198252722382
27216 239 18041845133147123025
293599 30 18409732880758839108
350125 39 18049448337620597354
474 4 18413390921146595299
4921388 177 15625947602778225327
5104073 3 18261104227636755072
633830 44 18271812271967955591
76465 3 10375603572683856396
77492 1 17703785877877727779
8272917 22 18197782107263058935
83771 10 9007059067151011799

> <PUBCHEM_SHAPE_MULTIPOLES>
327.14
9.73
1.8
0.98
0.36
0.4
0
-6.37
0
0.95
0
-0.92
0
0

> <PUBCHEM_SHAPE_SELFOVERLAP>
692.396

> <PUBCHEM_SHAPE_VOLUME>
185.7

> <PUBCHEM_COORDINATE_TYPE>
2
5
10

$$$$
