7102
  -OEChem-03212100463D

 24 25  0     0  0  0  0  0  0999 V2000
    4.5448   -0.0005   -0.0001 N   0  0  0  0  0  0  0  0  0  0  0  0
    0.3447    0.0005    0.0000 C   0  0  0  0  0  0  0  0  0  0  0  0
   -1.1021    0.0005    0.0000 C   0  0  0  0  0  0  0  0  0  0  0  0
    1.0423    0.8575    0.8510 C   0  0  0  0  0  0  0  0  0  0  0  0
    1.0419   -0.8570   -0.8510 C   0  0  0  0  0  0  0  0  0  0  0  0
   -1.7991   -0.8511    0.8570 C   0  0  0  0  0  0  0  0  0  0  0  0
   -1.8000    0.8516   -0.8570 C   0  0  0  0  0  0  0  0  0  0  0  0
    3.1344   -0.0001   -0.0001 C   0  0  0  0  0  0  0  0  0  0  0  0
    2.4372    0.8572    0.8510 C   0  0  0  0  0  0  0  0  0  0  0  0
    2.4368   -0.8574   -0.8511 C   0  0  0  0  0  0  0  0  0  0  0  0
   -3.1940   -0.8516    0.8571 C   0  0  0  0  0  0  0  0  0  0  0  0
   -3.1948    0.8510   -0.8569 C   0  0  0  0  0  0  0  0  0  0  0  0
   -3.8919   -0.0006    0.0002 C   0  0  0  0  0  0  0  0  0  0  0  0
    0.5142    1.5322    1.5208 H   0  0  0  0  0  0  0  0  0  0  0  0
    0.5136   -1.5316   -1.5207 H   0  0  0  0  0  0  0  0  0  0  0  0
   -1.2708   -1.5210    1.5314 H   0  0  0  0  0  0  0  0  0  0  0  0
   -1.2722    1.5218   -1.5316 H   0  0  0  0  0  0  0  0  0  0  0  0
    2.9695    1.5298    1.5188 H   0  0  0  0  0  0  0  0  0  0  0  0
    2.9688   -1.5302   -1.5189 H   0  0  0  0  0  0  0  0  0  0  0  0
   -3.7369   -1.5147    1.5243 H   0  0  0  0  0  0  0  0  0  0  0  0
   -3.7384    1.5136   -1.5241 H   0  0  0  0  0  0  0  0  0  0  0  0
   -4.9780   -0.0010    0.0003 H   0  0  0  0  0  0  0  0  0  0  0  0
    5.0508   -0.6214   -0.6174 H   0  0  0  0  0  0  0  0  0  0  0  0
    5.0511    0.6212    0.6163 H   0  0  0  0  0  0  0  0  0  0  0  0
  1  8  1  0  0  0  0
  1 23  1  0  0  0  0
  1 24  1  0  0  0  0
  2  3  1  0  0  0  0
  2  4  2  0  0  0  0
  2  5  1  0  0  0  0
  3  6  2  0  0  0  0
  3  7  1  0  0  0  0
  4  9  1  0  0  0  0
  4 14  1  0  0  0  0
  5 10  2  0  0  0  0
  5 15  1  0  0  0  0
  6 11  1  0  0  0  0
  6 16  1  0  0  0  0
  7 12  2  0  0  0  0
  7 17  1  0  0  0  0
  8  9  2  0  0  0  0
  8 10  1  0  0  0  0
  9 18  1  0  0  0  0
 10 19  1  0  0  0  0
 11 13  2  0  0  0  0
 11 20  1  0  0  0  0
 12 13  1  0  0  0  0
 12 21  1  0  0  0  0
 13 22  1  0  0  0  0
M  END
> <PUBCHEM_COMPOUND_CID>
7102

> <PUBCHEM_CONFORMER_RMSD>
0.4

> <PUBCHEM_CONFORMER_DIVERSEORDER>
1
2

> <PUBCHEM_MMFF94_PARTIAL_CHARGES>
22
1 -0.9
10 -0.15
11 -0.15
12 -0.15
13 -0.15
14 0.15
15 0.15
16 0.15
17 0.15
18 0.15
19 0.15
20 0.15
21 0.15
22 0.15
23 0.4
24 0.4
4 -0.15
5 -0.15
6 -0.15
7 -0.15
8 0.1
9 -0.15

> <PUBCHEM_EFFECTIVE_ROTOR_COUNT>
1

> <PUBCHEM_PHARMACOPHORE_FEATURES>
4
1 1 cation
1 1 donor
6 2 4 5 8 9 10 rings
6 3 6 7 11 12 13 rings

> <PUBCHEM_HEAVY_ATOM_COUNT>
13

> <PUBCHEM_ATOM_DEF_STEREO_COUNT>
0

> <PUBCHEM_ATOM_UDEF_STEREO_COUNT>
0

> <PUBCHEM_BOND_DEF_STEREO_COUNT>
0

> <PUBCHEM_BOND_UDEF_STEREO_COUNT>
0

> <PUBCHEM_ISOTOPIC_ATOM_COUNT>
0

> <PUBCHEM_COMPONENT_COUNT>
1

> <PUBCHEM_CACTVS_TAUTO_COUNT>
1

> <PUBCHEM_CONFORMER_ID>
00001BBE00000001

> <PUBCHEM_MMFF94_ENERGY>
51.1436

> <PUBCHEM_FEATURE_SELFOVERLAP>
20.297

> <PUBCHEM_SHAPE_FINGERPRINT>
10219947 1 17775568637058358156
10465860 250 18334286553192340384
10608611 8 18410288116587201205
11471102 20 17846497032702117328
12236239 1 15647052664085798889
124424 183 18409161095793686034
12500047 106 18040146310299035651
12932764 1 18411130350983545099
13581323 91 17458340849078801251
14144814 61 16056882420477998703
14993402 34 16200429169558512524
15219456 202 18412262839317238381
15279307 12 15719390642067975409
15309172 13 17704356580131048183
15653759 3 18333167284277100784
16945 1 17703791418532953348
17844478 74 18413112753437367593
18175812 5 18410291449354826277
18186145 218 18339368461138241607
19026448 4 18186801383494196872
19026448 5 16950281806509317760
19049666 15 18194684769858656015
19422 9 15864070970462007739
200 152 17203321213497162725
20201158 50 18342740701939661387
20279233 1 18410858754579301847
20645464 45 18409730664544930963
20645477 70 17916583120418124687
21639500 275 17417234558886895600
23402539 116 17895185610835003807
23402655 69 17489304144705602681
23557571 272 18186804655863988789
23559900 14 18115023005428206250
474 4 16127224866924299146
57812782 119 18409165510787957591
69090 78 18343015623371518791
77492 1 15769776857632738437

> <PUBCHEM_SHAPE_MULTIPOLES>
262.55
7.1
1.07
1.07
1.28
0
0
0
0
-0.2
0
-0.12
0
0.97

> <PUBCHEM_SHAPE_SELFOVERLAP>
570.785

> <PUBCHEM_SHAPE_VOLUME>
143.4

> <PUBCHEM_COORDINATE_TYPE>
2
5
10

$$$$
