7465
  -OEChem-03212101063D

 22 22  0     0  0  0  0  0  0999 V2000
    3.4587   -0.2314    0.0003 O   0  0  0  0  0  0  0  0  0  0  0  0
   -2.1522    0.3597    0.0001 C   0  0  0  0  0  0  0  0  0  0  0  0
   -0.6692    0.2036    0.0001 C   0  0  0  0  0  0  0  0  0  0  0  0
   -2.8072   -0.2368    1.2605 C   0  0  0  0  0  0  0  0  0  0  0  0
   -2.8074   -0.2360   -1.2605 C   0  0  0  0  0  0  0  0  0  0  0  0
    0.1510    1.3319    0.0002 C   0  0  0  0  0  0  0  0  0  0  0  0
   -0.1022   -1.0708   -0.0002 C   0  0  0  0  0  0  0  0  0  0  0  0
    1.5382    1.1857    0.0000 C   0  0  0  0  0  0  0  0  0  0  0  0
    1.2850   -1.2170   -0.0003 C   0  0  0  0  0  0  0  0  0  0  0  0
    2.1052   -0.0888   -0.0003 C   0  0  0  0  0  0  0  0  0  0  0  0
   -2.3960    1.4309    0.0005 H   0  0  0  0  0  0  0  0  0  0  0  0
   -2.6848   -1.3241    1.3103 H   0  0  0  0  0  0  0  0  0  0  0  0
   -3.8811   -0.0213    1.2733 H   0  0  0  0  0  0  0  0  0  0  0  0
   -2.3673    0.1923    2.1676 H   0  0  0  0  0  0  0  0  0  0  0  0
   -2.3676    0.1937   -2.1674 H   0  0  0  0  0  0  0  0  0  0  0  0
   -3.8813   -0.0206   -1.2730 H   0  0  0  0  0  0  0  0  0  0  0  0
   -2.6850   -1.3233   -1.3109 H   0  0  0  0  0  0  0  0  0  0  0  0
   -0.2741    2.3320    0.0004 H   0  0  0  0  0  0  0  0  0  0  0  0
   -0.7217   -1.9634   -0.0003 H   0  0  0  0  0  0  0  0  0  0  0  0
    2.1663    2.0725    0.0002 H   0  0  0  0  0  0  0  0  0  0  0  0
    1.7211   -2.2123   -0.0005 H   0  0  0  0  0  0  0  0  0  0  0  0
    3.8685    0.6507    0.0004 H   0  0  0  0  0  0  0  0  0  0  0  0
  1 10  1  0  0  0  0
  1 22  1  0  0  0  0
  2  3  1  0  0  0  0
  2  4  1  0  0  0  0
  2  5  1  0  0  0  0
  2 11  1  0  0  0  0
  3  6  2  0  0  0  0
  3  7  1  0  0  0  0
  4 12  1  0  0  0  0
  4 13  1  0  0  0  0
  4 14  1  0  0  0  0
  5 15  1  0  0  0  0
  5 16  1  0  0  0  0
  5 17  1  0  0  0  0
  6  8  1  0  0  0  0
  6 18  1  0  0  0  0
  7  9  2  0  0  0  0
  7 19  1  0  0  0  0
  8 10  2  0  0  0  0
  8 20  1  0  0  0  0
  9 10  1  0  0  0  0
  9 21  1  0  0  0  0
M  END
> <PUBCHEM_COMPOUND_CID>
7465

> <PUBCHEM_CONFORMER_RMSD>
0.4

> <PUBCHEM_CONFORMER_DIVERSEORDER>
1
2

> <PUBCHEM_MMFF94_PARTIAL_CHARGES>
13
1 -0.53
10 0.08
18 0.15
19 0.15
2 0.14
20 0.15
21 0.15
22 0.45
3 -0.14
6 -0.15
7 -0.15
8 -0.15
9 -0.15

> <PUBCHEM_EFFECTIVE_ROTOR_COUNT>
1

> <PUBCHEM_PHARMACOPHORE_FEATURES>
3
1 1 donor
3 2 4 5 hydrophobe
6 3 6 7 8 9 10 rings

> <PUBCHEM_HEAVY_ATOM_COUNT>
10

> <PUBCHEM_ATOM_DEF_STEREO_COUNT>
0

> <PUBCHEM_ATOM_UDEF_STEREO_COUNT>
0

> <PUBCHEM_BOND_DEF_STEREO_COUNT>
0

> <PUBCHEM_BOND_UDEF_STEREO_COUNT>
0

> <PUBCHEM_ISOTOPIC_ATOM_COUNT>
0

> <PUBCHEM_COMPONENT_COUNT>
1

> <PUBCHEM_CACTVS_TAUTO_COUNT>
2

> <PUBCHEM_CONFORMER_ID>
00001D2900000001

> <PUBCHEM_MMFF94_ENERGY>
22.7794

> <PUBCHEM_FEATURE_SELFOVERLAP>
15.223

> <PUBCHEM_SHAPE_FINGERPRINT>
10219947 1 18412265029982654918
10857977 72 18113339738508222409
12032990 46 18336838506732371698
12138202 97 16950548983524426623
12897270 3 18408595959633306885
12932764 1 17918274233789196689
14128692 85 17845638369860395447
14325111 11 18410855490235332256
16945 1 18410575089147956774
17844478 74 17967543375879230761
20201158 50 18187082832411187435
21040471 1 18266741479191453600
23402655 69 18194100951319072797
23552423 10 18046350734245194510
2748010 2 18121784095341947302
29004967 10 18334300842121155721
5084963 1 18130779092420598437
528886 8 18411978044499632627

> <PUBCHEM_SHAPE_MULTIPOLES>
199.93
4.5
1.24
0.93
0.07
0.09
0
-0.38
0
0.42
0
-0.92
-0.07
0

> <PUBCHEM_SHAPE_SELFOVERLAP>
407.941

> <PUBCHEM_SHAPE_VOLUME>
117.4

> <PUBCHEM_COORDINATE_TYPE>
2
5
10

$$$$
