14270850
  -OEChem-03212100323D

 14 14  0     0  0  0  0  0  0999 V2000
   -3.3195    0.3374   -0.1926 Cl  0  0  0  0  0  0  0  0  0  0  0  0
   -1.4893   -2.3657    0.1308 Cl  0  0  0  0  0  0  0  0  0  0  0  0
    2.8398    0.5519    0.2744 S   0  0  0  0  0  0  0  0  0  0  0  0
    0.5128   -0.7535    0.1797 N   0  0  0  0  0  0  0  0  0  0  0  0
    0.4193    1.6487    0.0120 N   0  0  0  0  0  0  0  0  0  0  0  0
    1.0652    0.4741    0.1408 C   0  0  0  0  0  0  0  0  0  0  0  0
   -1.6099    0.3559   -0.0602 C   0  0  0  0  0  0  0  0  0  0  0  0
   -0.8323   -0.7760    0.0762 C   0  0  0  0  0  0  0  0  0  0  0  0
   -0.9229    1.5524   -0.0864 C   0  0  0  0  0  0  0  0  0  0  0  0
    3.3368   -1.0252   -0.4748 C   0  0  0  0  0  0  0  0  0  0  0  0
   -1.4367    2.5033   -0.1901 H   0  0  0  0  0  0  0  0  0  0  0  0
    2.9283   -1.1149   -1.4850 H   0  0  0  0  0  0  0  0  0  0  0  0
    2.9964   -1.8664    0.1350 H   0  0  0  0  0  0  0  0  0  0  0  0
    4.4277   -1.0626   -0.5360 H   0  0  0  0  0  0  0  0  0  0  0  0
  1  7  1  0  0  0  0
  2  8  1  0  0  0  0
  3  6  1  0  0  0  0
  3 10  1  0  0  0  0
  4  6  1  0  0  0  0
  4  8  2  0  0  0  0
  5  6  2  0  0  0  0
  5  9  1  0  0  0  0
  7  8  1  0  0  0  0
  7  9  2  0  0  0  0
  9 11  1  0  0  0  0
 10 12  1  0  0  0  0
 10 13  1  0  0  0  0
 10 14  1  0  0  0  0
M  END
> <PUBCHEM_COMPOUND_CID>
14270850

> <PUBCHEM_CONFORMER_RMSD>
0.4

> <PUBCHEM_CONFORMER_DIVERSEORDER>
1
2
3
4

> <PUBCHEM_MMFF94_PARTIAL_CHARGES>
11
1 -0.18
10 0.23
11 0.15
2 -0.18
3 -0.33
4 -0.62
5 -0.62
6 0.72
7 0.18
8 0.49
9 0.16

> <PUBCHEM_EFFECTIVE_ROTOR_COUNT>
1

> <PUBCHEM_PHARMACOPHORE_FEATURES>
4
1 10 hydrophobe
1 4 acceptor
3 4 5 6 cation
6 4 5 6 7 8 9 rings

> <PUBCHEM_HEAVY_ATOM_COUNT>
10

> <PUBCHEM_ATOM_DEF_STEREO_COUNT>
0

> <PUBCHEM_ATOM_UDEF_STEREO_COUNT>
0

> <PUBCHEM_BOND_DEF_STEREO_COUNT>
0

> <PUBCHEM_BOND_UDEF_STEREO_COUNT>
0

> <PUBCHEM_ISOTOPIC_ATOM_COUNT>
0

> <PUBCHEM_COMPONENT_COUNT>
1

> <PUBCHEM_CACTVS_TAUTO_COUNT>
1

> <PUBCHEM_CONFORMER_ID>
00D9C18200000001

> <PUBCHEM_MMFF94_ENERGY>
17.8714

> <PUBCHEM_FEATURE_SELFOVERLAP>
20.297

> <PUBCHEM_SHAPE_FINGERPRINT>
12032990 46 18409736161860483203
12716758 59 18410009910175178154
12932764 1 17385711517753240836
14325111 11 18411417289137615705
14993402 34 18335698330243233661
15310529 11 16370715994213377721
16945 1 18408316683505940681
193761 8 17905326578318748465
20201158 50 18201159858591766198
20645476 183 17386018260012309682
20871998 184 18200597024074999711
20871998 22 18122353642196856482
21040471 1 18409443709052930449
21501502 16 18120374521176838037
23235685 24 18411410700863408017
23402539 116 18270668788470128501
23402655 69 18122321512496263485
23552423 10 18115589391043935718
23559900 14 18412825786041205366
2748010 2 18193833975354886957
369184 2 15697995211091062124
5084963 1 18201716202363136312
68250623 7 18048043153122814269

> <PUBCHEM_SHAPE_MULTIPOLES>
203.42
4.74
1.98
0.66
1.82
0.77
0.01
0.49
0.46
-0.64
-0.03
0.09
0.03
0.33

> <PUBCHEM_SHAPE_SELFOVERLAP>
383.658

> <PUBCHEM_SHAPE_VOLUME>
130.6

> <PUBCHEM_COORDINATE_TYPE>
2
5
10

$$$$
